version 3
run General-0-20240208-14:02:26-11328
attr configname General
attr datetime 20240208-14:02:26
attr datetimef 20240208-140226
attr experiment General
attr inifile omnetpp.ini
attr iterationvars ""
attr iterationvarsd ""
attr iterationvarsf ""
attr measurement ""
attr network wirelessNetwork
attr processid 11328
attr repetition 0
attr replication #0
attr resultdir results
attr runnumber 0
attr seedset 0
config image-path ../../../inet4.5/images
config description "Two adhoc host communicating via AODV, in order to debug"
config network wirelessNetwork
config sim-time-limit 60s
config *.host*.ipv4.arp.typename GlobalArp
config *.host.numApps 1
config *.host.app[0].typename UdpBasicApp
config *.host.app[0].destAddresses "\"host20\""
config *.host.app[0].destPort 5000
config *.host.app[0].messageLength 1000B
config *.host.app[0].sendInterval exponential(1s)
config *.host.app[0].packetName "\"UDPData\""
config *.host20.numApps 1
config *.host20.app[0].typename UdpSinkApp
config *.host20.app[0].localPort 5000
config **.wlan[*].typename AckingWirelessInterface
config **.wlan[*].bitrate 2Mbps
config **.wlan[*].mac.headerLength 23B
config **.wlan[*].radio.typename UnitDiskRadio
config **.wlan[*].radio.transmitter.headerLength 96b
config **.wlan[*].radio.transmitter.interferenceRange 0m
config **.wlan[*].radio.transmitter.detectionRange 0m
config **.wlan[*].radio.receiver.ignoreInterference true
config **.wlan[*].radio.transmitter.communicationRange 150m
config *.host*.**.bitrate 1Mbps
config *.host*.wlan[0].radio.displayCommunicationRange true
config *.visualizer.sceneVisualizer.descriptionFigure "\"title\""
config *.visualizer.mediumVisualizer.displaySignals true
config *.visualizer.physicalLinkVisualizer.displayLinks true
config *.visualizer.physicalLinkVisualizer.packetFilter "\"UDPData*\""

par wirelessNetwork.visualizer.sceneVisualizer typename "\"inet.visualizer.canvas.scene.SceneCanvasVisualizer\""
par wirelessNetwork.visualizer.sceneVisualizer visualizationTargetModule "\"^.^\""
par wirelessNetwork.visualizer.sceneVisualizer visualizationSubjectModule "\"^.^\""
par wirelessNetwork.visualizer.sceneVisualizer tags "\"\""
par wirelessNetwork.visualizer.sceneVisualizer physicalEnvironmentModule "\"physicalEnvironment\""
par wirelessNetwork.visualizer.sceneVisualizer networkNodeVisualizerModule "\"^.networkNodeVisualizer\""
par wirelessNetwork.visualizer.sceneVisualizer axisLength "nan m"
attr mutable ""
attr unit m
par wirelessNetwork.visualizer.sceneVisualizer animationSpeed 0
par wirelessNetwork.visualizer.sceneVisualizer sceneMinX "nan m"
attr unit m
par wirelessNetwork.visualizer.sceneVisualizer sceneMinY "nan m"
attr unit m
par wirelessNetwork.visualizer.sceneVisualizer sceneMinZ "nan m"
attr unit m
par wirelessNetwork.visualizer.sceneVisualizer sceneMaxX "nan m"
attr unit m
par wirelessNetwork.visualizer.sceneVisualizer sceneMaxY "nan m"
attr unit m
par wirelessNetwork.visualizer.sceneVisualizer sceneMaxZ "nan m"
attr unit m
par wirelessNetwork.visualizer.sceneVisualizer zIndex 0
par wirelessNetwork.visualizer.sceneVisualizer viewAngle "\"x right y down z out\""
attr mutable ""
par wirelessNetwork.visualizer.sceneVisualizer viewScale "\"1 1\""
attr mutable ""
par wirelessNetwork.visualizer.sceneVisualizer viewTranslation "\"0 0\""
attr mutable ""
par wirelessNetwork.visualizer.sceneVisualizer descriptionFigure "\"title\""
par wirelessNetwork.visualizer.physicalEnvironmentVisualizer typename "\"inet.visualizer.canvas.environment.PhysicalEnvironmentCanvasVisualizer\""
par wirelessNetwork.visualizer.physicalEnvironmentVisualizer visualizationTargetModule "\"^.^\""
par wirelessNetwork.visualizer.physicalEnvironmentVisualizer visualizationSubjectModule "\"^.^\""
par wirelessNetwork.visualizer.physicalEnvironmentVisualizer tags "\"\""
par wirelessNetwork.visualizer.physicalEnvironmentVisualizer physicalEnvironmentModule "\"physicalEnvironment\""
par wirelessNetwork.visualizer.physicalEnvironmentVisualizer displayObjects true
par wirelessNetwork.visualizer.physicalEnvironmentVisualizer zIndex 0
par wirelessNetwork.visualizer.networkNodeVisualizer typename "\"inet.visualizer.canvas.scene.NetworkNodeCanvasVisualizer\""
par wirelessNetwork.visualizer.networkNodeVisualizer visualizationTargetModule "\"^.^\""
par wirelessNetwork.visualizer.networkNodeVisualizer visualizationSubjectModule "\"^.^\""
par wirelessNetwork.visualizer.networkNodeVisualizer tags "\"\""
par wirelessNetwork.visualizer.networkNodeVisualizer nodeFilter "\"*\""
attr mutable ""
par wirelessNetwork.visualizer.networkNodeVisualizer annotationSpacing 4
par wirelessNetwork.visualizer.networkNodeVisualizer placementPenalty 10
par wirelessNetwork.visualizer.networkNodeVisualizer zIndex 0
par wirelessNetwork.visualizer.networkConnectionVisualizer typename "\"inet.visualizer.canvas.scene.NetworkConnectionCanvasVisualizer\""
par wirelessNetwork.visualizer.networkConnectionVisualizer visualizationTargetModule "\"^.^\""
par wirelessNetwork.visualizer.networkConnectionVisualizer visualizationSubjectModule "\"^.^\""
par wirelessNetwork.visualizer.networkConnectionVisualizer tags "\"\""
par wirelessNetwork.visualizer.networkConnectionVisualizer displayNetworkConnections true
par wirelessNetwork.visualizer.networkConnectionVisualizer nodeFilter "\"\""
attr mutable ""
par wirelessNetwork.visualizer.networkConnectionVisualizer lineColor "\"black\""
par wirelessNetwork.visualizer.networkConnectionVisualizer lineStyle "\"solid\""
par wirelessNetwork.visualizer.networkConnectionVisualizer lineWidth 1
par wirelessNetwork.visualizer.networkConnectionVisualizer zIndex 0
par wirelessNetwork.visualizer.mobilityVisualizer typename "\"inet.visualizer.canvas.mobility.MobilityCanvasVisualizer\""
par wirelessNetwork.visualizer.mobilityVisualizer visualizationTargetModule "\"^.^\""
par wirelessNetwork.visualizer.mobilityVisualizer visualizationSubjectModule "\"^.^\""
par wirelessNetwork.visualizer.mobilityVisualizer tags "\"\""
par wirelessNetwork.visualizer.mobilityVisualizer networkNodeVisualizerModule "\"^.networkNodeVisualizer\""
par wirelessNetwork.visualizer.mobilityVisualizer displayMobility true
par wirelessNetwork.visualizer.mobilityVisualizer animationSpeed 0
par wirelessNetwork.visualizer.mobilityVisualizer moduleFilter "\"**.mobility\""
attr mutable ""
par wirelessNetwork.visualizer.mobilityVisualizer displayPositions false
par wirelessNetwork.visualizer.mobilityVisualizer positionCircleRadius 4
par wirelessNetwork.visualizer.mobilityVisualizer positionCircleLineWidth 1
par wirelessNetwork.visualizer.mobilityVisualizer positionCircleLineColor "\"dark\""
attr enum light,dark
par wirelessNetwork.visualizer.mobilityVisualizer positionCircleFillColor "\"dark\""
attr enum light,dark
par wirelessNetwork.visualizer.mobilityVisualizer displayOrientations false
par wirelessNetwork.visualizer.mobilityVisualizer orientationPieRadius 32
par wirelessNetwork.visualizer.mobilityVisualizer orientationPieSize 0.2
par wirelessNetwork.visualizer.mobilityVisualizer orientationPieOpacity 0.25
par wirelessNetwork.visualizer.mobilityVisualizer orientationLineColor "\"black\""
par wirelessNetwork.visualizer.mobilityVisualizer orientationLineStyle "\"solid\""
par wirelessNetwork.visualizer.mobilityVisualizer orientationLineWidth 1
par wirelessNetwork.visualizer.mobilityVisualizer orientationFillColor "\"blue\""
par wirelessNetwork.visualizer.mobilityVisualizer displayVelocities false
par wirelessNetwork.visualizer.mobilityVisualizer velocityArrowScale 1
par wirelessNetwork.visualizer.mobilityVisualizer velocityLineColor "\"black\""
par wirelessNetwork.visualizer.mobilityVisualizer velocityLineStyle "\"solid\""
par wirelessNetwork.visualizer.mobilityVisualizer velocityLineWidth 1
par wirelessNetwork.visualizer.mobilityVisualizer displayMovementTrails false
par wirelessNetwork.visualizer.mobilityVisualizer movementTrailLineColor "\"dark\""
attr enum light,dark
par wirelessNetwork.visualizer.mobilityVisualizer movementTrailLineStyle "\"solid\""
par wirelessNetwork.visualizer.mobilityVisualizer movementTrailLineWidth 1
par wirelessNetwork.visualizer.mobilityVisualizer trailLength 100
par wirelessNetwork.visualizer.mobilityVisualizer zIndex 0
par wirelessNetwork.visualizer.statisticVisualizer typename "\"inet.visualizer.canvas.common.StatisticCanvasVisualizer\""
par wirelessNetwork.visualizer.statisticVisualizer visualizationTargetModule "\"^.^\""
par wirelessNetwork.visualizer.statisticVisualizer visualizationSubjectModule "\"^.^\""
par wirelessNetwork.visualizer.statisticVisualizer tags "\"\""
par wirelessNetwork.visualizer.statisticVisualizer networkNodeVisualizerModule "\"^.networkNodeVisualizer\""
par wirelessNetwork.visualizer.statisticVisualizer displayStatistics true
par wirelessNetwork.visualizer.statisticVisualizer signalName "\"\""
par wirelessNetwork.visualizer.statisticVisualizer statisticName "\"\""
par wirelessNetwork.visualizer.statisticVisualizer statisticUnit "\"\""
par wirelessNetwork.visualizer.statisticVisualizer statisticExpression "\"\""
par wirelessNetwork.visualizer.statisticVisualizer sourceFilter "\"**\""
attr mutable ""
par wirelessNetwork.visualizer.statisticVisualizer format "\"%n: %v %u\""
attr mutable ""
par wirelessNetwork.visualizer.statisticVisualizer unit "\"\""
par wirelessNetwork.visualizer.statisticVisualizer font "\"<default>\""
par wirelessNetwork.visualizer.statisticVisualizer textColor "\"black\""
par wirelessNetwork.visualizer.statisticVisualizer backgroundColor "\"white\""
par wirelessNetwork.visualizer.statisticVisualizer opacity 1
par wirelessNetwork.visualizer.statisticVisualizer placementHint "\"top\""
par wirelessNetwork.visualizer.statisticVisualizer placementPriority 0
par wirelessNetwork.visualizer.statisticVisualizer zIndex 10
par wirelessNetwork.visualizer.statisticVisualizer propertyName "\"\""
par wirelessNetwork.visualizer.statisticVisualizer propertyIndex "\"\""
par wirelessNetwork.visualizer.infoVisualizer typename "\"inet.visualizer.canvas.common.InfoCanvasVisualizer\""
par wirelessNetwork.visualizer.infoVisualizer visualizationTargetModule "\"^.^\""
par wirelessNetwork.visualizer.infoVisualizer visualizationSubjectModule "\"^.^\""
par wirelessNetwork.visualizer.infoVisualizer tags "\"\""
par wirelessNetwork.visualizer.infoVisualizer networkNodeVisualizerModule "\"^.networkNodeVisualizer\""
par wirelessNetwork.visualizer.infoVisualizer displayInfos true
par wirelessNetwork.visualizer.infoVisualizer modules "\"\""
attr mutable ""
par wirelessNetwork.visualizer.infoVisualizer format "\"%t\""
attr mutable ""
par wirelessNetwork.visualizer.infoVisualizer font "\"<default>\""
par wirelessNetwork.visualizer.infoVisualizer textColor "\"black\""
par wirelessNetwork.visualizer.infoVisualizer backgroundColor "\"white\""
par wirelessNetwork.visualizer.infoVisualizer opacity 1
par wirelessNetwork.visualizer.infoVisualizer placementHint "\"top\""
par wirelessNetwork.visualizer.infoVisualizer placementPriority 0
par wirelessNetwork.visualizer.infoVisualizer zIndex 10
par wirelessNetwork.visualizer.energyStorageVisualizer typename "\"inet.visualizer.canvas.power.EnergyStorageCanvasVisualizer\""
par wirelessNetwork.visualizer.energyStorageVisualizer visualizationTargetModule "\"^.^\""
par wirelessNetwork.visualizer.energyStorageVisualizer visualizationSubjectModule "\"^.^\""
par wirelessNetwork.visualizer.energyStorageVisualizer tags "\"\""
par wirelessNetwork.visualizer.energyStorageVisualizer networkNodeVisualizerModule "\"^.networkNodeVisualizer\""
par wirelessNetwork.visualizer.energyStorageVisualizer displayEnergyStorages false
par wirelessNetwork.visualizer.energyStorageVisualizer energyStorageFilter "\"**\""
par wirelessNetwork.visualizer.energyStorageVisualizer color "\"green\""
par wirelessNetwork.visualizer.energyStorageVisualizer width 8
par wirelessNetwork.visualizer.energyStorageVisualizer height 24
par wirelessNetwork.visualizer.energyStorageVisualizer spacing 2
par wirelessNetwork.visualizer.energyStorageVisualizer placementHint "\"right\""
par wirelessNetwork.visualizer.energyStorageVisualizer placementPriority 0
par wirelessNetwork.visualizer.energyStorageVisualizer zIndex 10
par wirelessNetwork.visualizer.mediumVisualizer typename "\"inet.visualizer.canvas.physicallayer.MediumCanvasVisualizer\""
par wirelessNetwork.visualizer.mediumVisualizer visualizationTargetModule "\"^.^\""
par wirelessNetwork.visualizer.mediumVisualizer visualizationSubjectModule "\"^.^\""
par wirelessNetwork.visualizer.mediumVisualizer tags "\"\""
par wirelessNetwork.visualizer.mediumVisualizer mediumModule "\"radioMedium\""
par wirelessNetwork.visualizer.mediumVisualizer networkNodeVisualizerModule "\"^.networkNodeVisualizer\""
par wirelessNetwork.visualizer.mediumVisualizer nodeFilter "\"*\""
attr mutable ""
par wirelessNetwork.visualizer.mediumVisualizer interfaceFilter "\"*\""
attr mutable ""
par wirelessNetwork.visualizer.mediumVisualizer packetFilter "(omnetpp::cValueHolder)holder: \"*\""
attr mutable ""
par wirelessNetwork.visualizer.mediumVisualizer displaySignals true
par wirelessNetwork.visualizer.mediumVisualizer signalColor "\"dark\""
attr enum light,dark
par wirelessNetwork.visualizer.mediumVisualizer signalPropagationAnimationSpeed "nan "
attr mutable ""
par wirelessNetwork.visualizer.mediumVisualizer signalPropagationAnimationTime 1s
attr unit s
par wirelessNetwork.visualizer.mediumVisualizer signalPropagationAdditionalTime 0s
attr unit s
par wirelessNetwork.visualizer.mediumVisualizer signalTransmissionAnimationSpeed "nan "
attr mutable ""
par wirelessNetwork.visualizer.mediumVisualizer signalTransmissionAnimationTime 1s
attr unit s
par wirelessNetwork.visualizer.mediumVisualizer signalAnimationSpeedChangeTimeMode "\"realTime\""
attr enum realTime,animationTime,simulationTime
par wirelessNetwork.visualizer.mediumVisualizer signalAnimationSpeedChangeTime 1s
attr unit s
par wirelessNetwork.visualizer.mediumVisualizer displaySignalDepartures false
par wirelessNetwork.visualizer.mediumVisualizer signalDepartureImage "\"misc/signal_departure.png\""
par wirelessNetwork.visualizer.mediumVisualizer signalDeparturePlacementHint "\"topCenter\""
par wirelessNetwork.visualizer.mediumVisualizer signalDeparturePlacementPriority 1
par wirelessNetwork.visualizer.mediumVisualizer displaySignalArrivals false
par wirelessNetwork.visualizer.mediumVisualizer signalArrivalImage "\"misc/signal_arrival.png\""
par wirelessNetwork.visualizer.mediumVisualizer signalArrivalPlacementHint "\"topCenter\""
par wirelessNetwork.visualizer.mediumVisualizer signalArrivalPlacementPriority -1
par wirelessNetwork.visualizer.mediumVisualizer displayCommunicationRanges false
par wirelessNetwork.visualizer.mediumVisualizer communicationRangeLineColor "\"blue\""
par wirelessNetwork.visualizer.mediumVisualizer communicationRangeLineStyle "\"solid\""
par wirelessNetwork.visualizer.mediumVisualizer communicationRangeLineWidth 1
par wirelessNetwork.visualizer.mediumVisualizer displayInterferenceRanges false
par wirelessNetwork.visualizer.mediumVisualizer interferenceRangeLineColor "\"gray\""
par wirelessNetwork.visualizer.mediumVisualizer interferenceRangeLineStyle "\"solid\""
par wirelessNetwork.visualizer.mediumVisualizer interferenceRangeLineWidth 1
par wirelessNetwork.visualizer.mediumVisualizer autoPowerAxis true
par wirelessNetwork.visualizer.mediumVisualizer signalMinPower "inf dBmW"
attr unit dBmW
par wirelessNetwork.visualizer.mediumVisualizer signalMaxPower 0dBmW
attr unit dBmW
par wirelessNetwork.visualizer.mediumVisualizer signalMinPowerDensity "inf dBmWpMHz"
attr unit dBmWpMHz
par wirelessNetwork.visualizer.mediumVisualizer signalMaxPowerDensity "-inf dBmWpMHz"
attr unit dBmWpMHz
par wirelessNetwork.visualizer.mediumVisualizer autoTimeAxis true
par wirelessNetwork.visualizer.mediumVisualizer signalMinTime 0s
attr unit s
par wirelessNetwork.visualizer.mediumVisualizer signalMaxTime 0s
attr unit s
par wirelessNetwork.visualizer.mediumVisualizer autoFrequencyAxis true
par wirelessNetwork.visualizer.mediumVisualizer signalMinFrequency "inf Hz"
attr unit Hz
par wirelessNetwork.visualizer.mediumVisualizer signalMaxFrequency "-inf Hz"
attr unit Hz
par wirelessNetwork.visualizer.mediumVisualizer displayMainPowerDensityMap false
par wirelessNetwork.visualizer.mediumVisualizer mainPowerDensityMapPixmapDensity 1
par wirelessNetwork.visualizer.mediumVisualizer mainPowerDensityMapMinX 0
par wirelessNetwork.visualizer.mediumVisualizer mainPowerDensityMapMaxX "nan "
par wirelessNetwork.visualizer.mediumVisualizer mainPowerDensityMapMinY 0
par wirelessNetwork.visualizer.mediumVisualizer mainPowerDensityMapMaxY "nan "
par wirelessNetwork.visualizer.mediumVisualizer mainPowerDensityMapZ 0
par wirelessNetwork.visualizer.mediumVisualizer mainPowerDensityMapFigureXTickCount 3
par wirelessNetwork.visualizer.mediumVisualizer mainPowerDensityMapFigureYTickCount 3
par wirelessNetwork.visualizer.mediumVisualizer displayPowerDensityMaps false
par wirelessNetwork.visualizer.mediumVisualizer powerDensityMapMode "\"auto\""
attr enum total,signal,auto
par wirelessNetwork.visualizer.mediumVisualizer powerDensityMapPixelMode "\"mean\""
attr enum sample,partition,mean
par wirelessNetwork.visualizer.mediumVisualizer powerDensityMapApproximationSize 10
par wirelessNetwork.visualizer.mediumVisualizer powerDensityMapCenterFrequency "nan Hz"
attr mutable ""
attr unit Hz
par wirelessNetwork.visualizer.mediumVisualizer powerDensityMapBandwidth 0Hz
attr mutable ""
attr unit Hz
par wirelessNetwork.visualizer.mediumVisualizer powerDensityMapFigureWidth 200
par wirelessNetwork.visualizer.mediumVisualizer powerDensityMapFigureHeight 120
par wirelessNetwork.visualizer.mediumVisualizer powerDensityMapPixmapWidth 200
par wirelessNetwork.visualizer.mediumVisualizer powerDensityMapPixmapHeight 120
par wirelessNetwork.visualizer.mediumVisualizer powerDensityMapZ 0
par wirelessNetwork.visualizer.mediumVisualizer powerDensityMapFigureXTickCount 3
par wirelessNetwork.visualizer.mediumVisualizer powerDensityMapFigureYTickCount 3
par wirelessNetwork.visualizer.mediumVisualizer displaySpectrums false
par wirelessNetwork.visualizer.mediumVisualizer spectrumMode "\"auto\""
attr enum total,signal,auto
par wirelessNetwork.visualizer.mediumVisualizer spectrumFigureWidth 200
par wirelessNetwork.visualizer.mediumVisualizer spectrumFigureHeight 120
par wirelessNetwork.visualizer.mediumVisualizer spectrumFigureXTickCount 3
par wirelessNetwork.visualizer.mediumVisualizer spectrumFigureYTickCount 5
par wirelessNetwork.visualizer.mediumVisualizer spectrumFigureInterpolationSize 5
par wirelessNetwork.visualizer.mediumVisualizer spectrumPlacementHint "\"bottomCenter\""
par wirelessNetwork.visualizer.mediumVisualizer spectrumPlacementPriority -1
par wirelessNetwork.visualizer.mediumVisualizer displaySpectrograms false
par wirelessNetwork.visualizer.mediumVisualizer spectrogramMode "\"auto\""
attr enum total,signal,auto
par wirelessNetwork.visualizer.mediumVisualizer spectrogramPixelMode "\"mean\""
attr enum sample,partition,mean
par wirelessNetwork.visualizer.mediumVisualizer spectrogramFigureWidth 200
par wirelessNetwork.visualizer.mediumVisualizer spectrogramFigureHeight 120
par wirelessNetwork.visualizer.mediumVisualizer spectrogramPixmapWidth 200
par wirelessNetwork.visualizer.mediumVisualizer spectrogramPixmapHeight 120
par wirelessNetwork.visualizer.mediumVisualizer spectrogramFigureXTickCount 3
par wirelessNetwork.visualizer.mediumVisualizer spectrogramFigureYTickCount 5
par wirelessNetwork.visualizer.mediumVisualizer spectrogramPlacementHint "\"bottomCenter\""
par wirelessNetwork.visualizer.mediumVisualizer spectrogramPlacementPriority -1
par wirelessNetwork.visualizer.mediumVisualizer zIndex 0
par wirelessNetwork.visualizer.mediumVisualizer signalShape "\"ring\""
attr enum ring,sphere
par wirelessNetwork.visualizer.mediumVisualizer signalOpacity 0.5
par wirelessNetwork.visualizer.mediumVisualizer signalRingCount 20
par wirelessNetwork.visualizer.mediumVisualizer signalRingSize 50m
attr unit m
par wirelessNetwork.visualizer.mediumVisualizer signalFadingDistance 50m
attr unit m
par wirelessNetwork.visualizer.mediumVisualizer signalFadingFactor 1.2
par wirelessNetwork.visualizer.mediumVisualizer signalWaveCount 20
par wirelessNetwork.visualizer.mediumVisualizer signalWaveLength 50m
attr unit m
par wirelessNetwork.visualizer.mediumVisualizer signalWaveWidth 10m
attr unit m
par wirelessNetwork.visualizer.mediumVisualizer signalWaveFadingAnimationSpeedFactor 1
par wirelessNetwork.visualizer.mediumVisualizer displayCommunicationHeat false
par wirelessNetwork.visualizer.obstacleLossVisualizer typename "\"inet.visualizer.canvas.physicallayer.TracingObstacleLossCanvasVisualizer\""
par wirelessNetwork.visualizer.obstacleLossVisualizer visualizationTargetModule "\"^.^\""
par wirelessNetwork.visualizer.obstacleLossVisualizer visualizationSubjectModule "\"^.^\""
par wirelessNetwork.visualizer.obstacleLossVisualizer tags "\"\""
par wirelessNetwork.visualizer.obstacleLossVisualizer displayIntersections false
par wirelessNetwork.visualizer.obstacleLossVisualizer intersectionLineColor "\"red\""
par wirelessNetwork.visualizer.obstacleLossVisualizer intersectionLineStyle "\"solid\""
par wirelessNetwork.visualizer.obstacleLossVisualizer intersectionLineWidth 1
par wirelessNetwork.visualizer.obstacleLossVisualizer displayFaceNormalVectors false
par wirelessNetwork.visualizer.obstacleLossVisualizer faceNormalLineColor "\"grey\""
par wirelessNetwork.visualizer.obstacleLossVisualizer faceNormalLineStyle "\"solid\""
par wirelessNetwork.visualizer.obstacleLossVisualizer faceNormalLineWidth 1
par wirelessNetwork.visualizer.obstacleLossVisualizer fadeOutMode "\"realTime\""
attr enum realTime,animationTime,simulationTime
par wirelessNetwork.visualizer.obstacleLossVisualizer fadeOutTime 1s
attr unit s
par wirelessNetwork.visualizer.obstacleLossVisualizer fadeOutAnimationSpeed 0
par wirelessNetwork.visualizer.obstacleLossVisualizer zIndex 0
par wirelessNetwork.visualizer.packetDropVisualizer typename "\"inet.visualizer.canvas.common.PacketDropCanvasVisualizer\""
par wirelessNetwork.visualizer.packetDropVisualizer visualizationTargetModule "\"^.^\""
par wirelessNetwork.visualizer.packetDropVisualizer visualizationSubjectModule "\"^.^\""
par wirelessNetwork.visualizer.packetDropVisualizer tags "\"\""
par wirelessNetwork.visualizer.packetDropVisualizer displayPacketDrops false
par wirelessNetwork.visualizer.packetDropVisualizer nodeFilter "\"*\""
attr mutable ""
par wirelessNetwork.visualizer.packetDropVisualizer interfaceFilter "\"*\""
attr mutable ""
par wirelessNetwork.visualizer.packetDropVisualizer packetFilter "(omnetpp::cValueHolder)holder: \"*\""
attr mutable ""
par wirelessNetwork.visualizer.packetDropVisualizer detailsFilter "\"*\""
attr mutable ""
par wirelessNetwork.visualizer.packetDropVisualizer icon "\"msg/packet_s\""
par wirelessNetwork.visualizer.packetDropVisualizer iconTintAmount 1
par wirelessNetwork.visualizer.packetDropVisualizer iconTintColor "\"dark\""
par wirelessNetwork.visualizer.packetDropVisualizer labelFormat "\"%n\""
attr mutable ""
par wirelessNetwork.visualizer.packetDropVisualizer labelFont "\"<default>\""
par wirelessNetwork.visualizer.packetDropVisualizer labelColor "\"black\""
par wirelessNetwork.visualizer.packetDropVisualizer fadeOutMode "\"realTime\""
attr enum realTime,animationTime,simulationTime
par wirelessNetwork.visualizer.packetDropVisualizer fadeOutTime 1s
attr unit s
par wirelessNetwork.visualizer.packetDropVisualizer fadeOutAnimationSpeed 0
par wirelessNetwork.visualizer.packetDropVisualizer zIndex 10
par wirelessNetwork.visualizer.packetDropVisualizer dx 32
par wirelessNetwork.visualizer.packetDropVisualizer dy 64
par wirelessNetwork.visualizer.packetFlowVisualizer typename "\"inet.visualizer.canvas.flow.PacketFlowCanvasVisualizer\""
par wirelessNetwork.visualizer.packetFlowVisualizer visualizationTargetModule "\"^.^\""
par wirelessNetwork.visualizer.packetFlowVisualizer visualizationSubjectModule "\"^.^\""
par wirelessNetwork.visualizer.packetFlowVisualizer tags "\"\""
par wirelessNetwork.visualizer.packetFlowVisualizer displayRoutes false
par wirelessNetwork.visualizer.packetFlowVisualizer startPathSignal "\"packetFlowStarted\""
par wirelessNetwork.visualizer.packetFlowVisualizer extendPathSignal "\"packetReceivedFromLower\""
par wirelessNetwork.visualizer.packetFlowVisualizer endPathSignal "\"packetFlowEnded\""
par wirelessNetwork.visualizer.packetFlowVisualizer nodeFilter "\"*\""
attr mutable ""
par wirelessNetwork.visualizer.packetFlowVisualizer packetFilter "(omnetpp::cValueHolder)holder: \"*\""
attr mutable ""
par wirelessNetwork.visualizer.packetFlowVisualizer lineColor "\"dark\""
attr enum light,dark
par wirelessNetwork.visualizer.packetFlowVisualizer lineStyle "\"dashed\""
par wirelessNetwork.visualizer.packetFlowVisualizer lineWidth 3
par wirelessNetwork.visualizer.packetFlowVisualizer lineSmooth false
par wirelessNetwork.visualizer.packetFlowVisualizer lineShift 16
par wirelessNetwork.visualizer.packetFlowVisualizer lineShiftMode "\"normal\""
par wirelessNetwork.visualizer.packetFlowVisualizer lineContactSpacing 3
par wirelessNetwork.visualizer.packetFlowVisualizer lineContactMode "\"rectangular\""
attr enum circular,rectangular
par wirelessNetwork.visualizer.packetFlowVisualizer labelFormat "\"%L %p pk (%l)\""
par wirelessNetwork.visualizer.packetFlowVisualizer labelFont "\"<default>, 8px\""
par wirelessNetwork.visualizer.packetFlowVisualizer labelColor "\"\""
par wirelessNetwork.visualizer.packetFlowVisualizer fadeOutMode "\"realTime\""
attr enum realTime,animationTime,simulationTime
par wirelessNetwork.visualizer.packetFlowVisualizer fadeOutTime 0s
attr unit s
par wirelessNetwork.visualizer.packetFlowVisualizer fadeOutAnimationSpeed 0
par wirelessNetwork.visualizer.packetFlowVisualizer zIndex 4
par wirelessNetwork.visualizer.queueVisualizer typename "\"inet.visualizer.canvas.common.QueueCanvasVisualizer\""
par wirelessNetwork.visualizer.queueVisualizer visualizationTargetModule "\"^.^\""
par wirelessNetwork.visualizer.queueVisualizer visualizationSubjectModule "\"^.^\""
par wirelessNetwork.visualizer.queueVisualizer tags "\"\""
par wirelessNetwork.visualizer.queueVisualizer networkNodeVisualizerModule "\"^.networkNodeVisualizer\""
par wirelessNetwork.visualizer.queueVisualizer displayQueues false
par wirelessNetwork.visualizer.queueVisualizer queueFilter "\"**\""
par wirelessNetwork.visualizer.queueVisualizer color "\"blue\""
par wirelessNetwork.visualizer.queueVisualizer width 8
par wirelessNetwork.visualizer.queueVisualizer height 24
par wirelessNetwork.visualizer.queueVisualizer spacing 2
par wirelessNetwork.visualizer.queueVisualizer placementHint "\"right\""
par wirelessNetwork.visualizer.queueVisualizer placementPriority 0
par wirelessNetwork.visualizer.queueVisualizer zIndex 10
par wirelessNetwork.visualizer.gateScheduleVisualizer typename "\"inet.visualizer.canvas.common.GateScheduleCanvasVisualizer\""
par wirelessNetwork.visualizer.gateScheduleVisualizer visualizationTargetModule "\"^.^\""
par wirelessNetwork.visualizer.gateScheduleVisualizer visualizationSubjectModule "\"^.^\""
par wirelessNetwork.visualizer.gateScheduleVisualizer tags "\"\""
par wirelessNetwork.visualizer.gateScheduleVisualizer networkNodeVisualizerModule "\"^.networkNodeVisualizer\""
par wirelessNetwork.visualizer.gateScheduleVisualizer displayGateSchedules false
par wirelessNetwork.visualizer.gateScheduleVisualizer labelFormat "\"%i %D\""
par wirelessNetwork.visualizer.gateScheduleVisualizer gateFilter "\"**\""
par wirelessNetwork.visualizer.gateScheduleVisualizer width 100
par wirelessNetwork.visualizer.gateScheduleVisualizer height 8
par wirelessNetwork.visualizer.gateScheduleVisualizer spacing 2
par wirelessNetwork.visualizer.gateScheduleVisualizer placementHint "\"right\""
par wirelessNetwork.visualizer.gateScheduleVisualizer placementPriority 0
par wirelessNetwork.visualizer.gateScheduleVisualizer displayDuration 0s
attr mutable ""
attr unit s
par wirelessNetwork.visualizer.gateScheduleVisualizer currentTimePosition 50
par wirelessNetwork.visualizer.gateScheduleVisualizer zIndex 10
par wirelessNetwork.visualizer.radioVisualizer typename "\"inet.visualizer.canvas.physicallayer.RadioCanvasVisualizer\""
par wirelessNetwork.visualizer.radioVisualizer visualizationTargetModule "\"^.^\""
par wirelessNetwork.visualizer.radioVisualizer visualizationSubjectModule "\"^.^\""
par wirelessNetwork.visualizer.radioVisualizer tags "\"\""
par wirelessNetwork.visualizer.radioVisualizer networkNodeVisualizerModule "\"^.networkNodeVisualizer\""
par wirelessNetwork.visualizer.radioVisualizer displayRadios false
par wirelessNetwork.visualizer.radioVisualizer displayRadioMode true
par wirelessNetwork.visualizer.radioVisualizer displayReceptionState true
par wirelessNetwork.visualizer.radioVisualizer displayTransmissionState true
par wirelessNetwork.visualizer.radioVisualizer displayAntennaLobes false
par wirelessNetwork.visualizer.radioVisualizer radioFilter "\"**\""
attr mutable ""
par wirelessNetwork.visualizer.radioVisualizer radioModeImages "\"block/process_vs block/timer_vs block/wrx_vs block/wtx_vs block/wrxtx_vs block/cogwheel_vs\""
par wirelessNetwork.visualizer.radioVisualizer receptionStateImages "\"- - misc/receiving misc/receiving\""
par wirelessNetwork.visualizer.radioVisualizer transmissionStateImages "\"- - misc/transmitting\""
par wirelessNetwork.visualizer.radioVisualizer width 16
par wirelessNetwork.visualizer.radioVisualizer height 16
par wirelessNetwork.visualizer.radioVisualizer placementHint "\"bottomRight\""
par wirelessNetwork.visualizer.radioVisualizer placementPriority 0
par wirelessNetwork.visualizer.radioVisualizer antennaLobeNormalize false
par wirelessNetwork.visualizer.radioVisualizer antennaLobeRelativeLabels false
par wirelessNetwork.visualizer.radioVisualizer antennaLobePlaneGlobal true
par wirelessNetwork.visualizer.radioVisualizer antennaLobePlane "\"view\""
attr enum view,xy,xz,yz
par wirelessNetwork.visualizer.radioVisualizer antennaLobeMode "\"logarithmic\""
attr enum logarithmic,linear
par wirelessNetwork.visualizer.radioVisualizer antennaLobeLogarithmicBase 10
par wirelessNetwork.visualizer.radioVisualizer antennaLobeLogarithmicScale 100
par wirelessNetwork.visualizer.radioVisualizer antennaLobeRadius 100
par wirelessNetwork.visualizer.radioVisualizer antennaLobeStep 10deg
attr unit deg
par wirelessNetwork.visualizer.radioVisualizer antennaLobeOpacity 0.25
par wirelessNetwork.visualizer.radioVisualizer antennaLobeLineSmooth true
par wirelessNetwork.visualizer.radioVisualizer antennaLobeLineColor "\"black\""
par wirelessNetwork.visualizer.radioVisualizer antennaLobeLineStyle "\"solid\""
par wirelessNetwork.visualizer.radioVisualizer antennaLobeLineWidth 1
par wirelessNetwork.visualizer.radioVisualizer antennaLobeFillColor "\"white\""
par wirelessNetwork.visualizer.radioVisualizer zIndex 10
par wirelessNetwork.visualizer.physicalLinkVisualizer typename "\"inet.visualizer.canvas.physicallayer.PhysicalLinkCanvasVisualizer\""
par wirelessNetwork.visualizer.physicalLinkVisualizer visualizationTargetModule "\"^.^\""
par wirelessNetwork.visualizer.physicalLinkVisualizer visualizationSubjectModule "\"^.^\""
par wirelessNetwork.visualizer.physicalLinkVisualizer tags "\"\""
par wirelessNetwork.visualizer.physicalLinkVisualizer displayLinks true
par wirelessNetwork.visualizer.physicalLinkVisualizer activityLevel "\"service\""
attr enum service,peer,protocol
par wirelessNetwork.visualizer.physicalLinkVisualizer nodeFilter "\"*\""
attr mutable ""
par wirelessNetwork.visualizer.physicalLinkVisualizer interfaceFilter "\"*\""
attr mutable ""
par wirelessNetwork.visualizer.physicalLinkVisualizer packetFilter "(omnetpp::cValueHolder)holder: \"UDPData*\""
attr mutable ""
par wirelessNetwork.visualizer.physicalLinkVisualizer lineColor "\"olive\""
par wirelessNetwork.visualizer.physicalLinkVisualizer lineStyle "\"dotted\""
par wirelessNetwork.visualizer.physicalLinkVisualizer lineWidth 3
par wirelessNetwork.visualizer.physicalLinkVisualizer lineShift 16
par wirelessNetwork.visualizer.physicalLinkVisualizer lineShiftMode "\"normal\""
par wirelessNetwork.visualizer.physicalLinkVisualizer lineContactSpacing 3
par wirelessNetwork.visualizer.physicalLinkVisualizer lineContactMode "\"rectangular\""
attr enum circular,rectangular
par wirelessNetwork.visualizer.physicalLinkVisualizer labelFormat "\"%n\""
par wirelessNetwork.visualizer.physicalLinkVisualizer labelFont "\"<default>, 8px\""
par wirelessNetwork.visualizer.physicalLinkVisualizer labelColor "\"olive\""
par wirelessNetwork.visualizer.physicalLinkVisualizer fadeOutMode "\"realTime\""
attr enum realTime,animationTime,simulationTime
par wirelessNetwork.visualizer.physicalLinkVisualizer fadeOutTime 1s
attr unit s
par wirelessNetwork.visualizer.physicalLinkVisualizer fadeOutAnimationSpeed 0
par wirelessNetwork.visualizer.physicalLinkVisualizer holdAnimationTime 0s
attr unit s
par wirelessNetwork.visualizer.physicalLinkVisualizer zIndex 1
par wirelessNetwork.visualizer.interfaceTableVisualizer typename "\"inet.visualizer.canvas.linklayer.InterfaceTableCanvasVisualizer\""
par wirelessNetwork.visualizer.interfaceTableVisualizer visualizationTargetModule "\"^.^\""
par wirelessNetwork.visualizer.interfaceTableVisualizer visualizationSubjectModule "\"^.^\""
par wirelessNetwork.visualizer.interfaceTableVisualizer tags "\"\""
par wirelessNetwork.visualizer.interfaceTableVisualizer networkNodeVisualizerModule "\"^.networkNodeVisualizer\""
par wirelessNetwork.visualizer.interfaceTableVisualizer displayInterfaceTables false
par wirelessNetwork.visualizer.interfaceTableVisualizer displayWiredInterfacesAtConnections true
par wirelessNetwork.visualizer.interfaceTableVisualizer displayBackground false
par wirelessNetwork.visualizer.interfaceTableVisualizer nodeFilter "\"*\""
attr mutable ""
par wirelessNetwork.visualizer.interfaceTableVisualizer interfaceFilter "\"not(lo*)\""
attr mutable ""
par wirelessNetwork.visualizer.interfaceTableVisualizer format "\"%N %\\\\%a%/%l\""
attr mutable ""
par wirelessNetwork.visualizer.interfaceTableVisualizer placementHint "\"top\""
par wirelessNetwork.visualizer.interfaceTableVisualizer placementPriority 0
par wirelessNetwork.visualizer.interfaceTableVisualizer font "\"<default>\""
par wirelessNetwork.visualizer.interfaceTableVisualizer textColor "\"#005030\""
par wirelessNetwork.visualizer.interfaceTableVisualizer backgroundColor "\"white\""
par wirelessNetwork.visualizer.interfaceTableVisualizer opacity 1
par wirelessNetwork.visualizer.interfaceTableVisualizer zIndex 10
par wirelessNetwork.visualizer.dataLinkVisualizer typename "\"inet.visualizer.canvas.linklayer.DataLinkCanvasVisualizer\""
par wirelessNetwork.visualizer.dataLinkVisualizer visualizationTargetModule "\"^.^\""
par wirelessNetwork.visualizer.dataLinkVisualizer visualizationSubjectModule "\"^.^\""
par wirelessNetwork.visualizer.dataLinkVisualizer tags "\"\""
par wirelessNetwork.visualizer.dataLinkVisualizer displayLinks false
par wirelessNetwork.visualizer.dataLinkVisualizer activityLevel "\"service\""
attr enum service,peer,protocol
par wirelessNetwork.visualizer.dataLinkVisualizer nodeFilter "\"*\""
attr mutable ""
par wirelessNetwork.visualizer.dataLinkVisualizer interfaceFilter "\"*\""
attr mutable ""
par wirelessNetwork.visualizer.dataLinkVisualizer packetFilter "(omnetpp::cValueHolder)holder: \"*\""
attr mutable ""
par wirelessNetwork.visualizer.dataLinkVisualizer lineColor "\"darkcyan\""
par wirelessNetwork.visualizer.dataLinkVisualizer lineStyle "\"solid\""
par wirelessNetwork.visualizer.dataLinkVisualizer lineWidth 3
par wirelessNetwork.visualizer.dataLinkVisualizer lineShift 16
par wirelessNetwork.visualizer.dataLinkVisualizer lineShiftMode "\"normal\""
par wirelessNetwork.visualizer.dataLinkVisualizer lineContactSpacing 3
par wirelessNetwork.visualizer.dataLinkVisualizer lineContactMode "\"rectangular\""
attr enum circular,rectangular
par wirelessNetwork.visualizer.dataLinkVisualizer labelFormat "\"%n\""
par wirelessNetwork.visualizer.dataLinkVisualizer labelFont "\"<default>, 8px\""
par wirelessNetwork.visualizer.dataLinkVisualizer labelColor "\"darkcyan\""
par wirelessNetwork.visualizer.dataLinkVisualizer fadeOutMode "\"realTime\""
attr enum realTime,animationTime,simulationTime
par wirelessNetwork.visualizer.dataLinkVisualizer fadeOutTime 1s
attr unit s
par wirelessNetwork.visualizer.dataLinkVisualizer fadeOutAnimationSpeed 0
par wirelessNetwork.visualizer.dataLinkVisualizer holdAnimationTime 0s
attr unit s
par wirelessNetwork.visualizer.dataLinkVisualizer zIndex 2
par wirelessNetwork.visualizer.linkBreakVisualizer typename "\"inet.visualizer.canvas.linklayer.LinkBreakCanvasVisualizer\""
par wirelessNetwork.visualizer.linkBreakVisualizer visualizationTargetModule "\"^.^\""
par wirelessNetwork.visualizer.linkBreakVisualizer visualizationSubjectModule "\"^.^\""
par wirelessNetwork.visualizer.linkBreakVisualizer tags "\"\""
par wirelessNetwork.visualizer.linkBreakVisualizer displayLinkBreaks false
par wirelessNetwork.visualizer.linkBreakVisualizer nodeFilter "\"*\""
attr mutable ""
par wirelessNetwork.visualizer.linkBreakVisualizer interfaceFilter "\"*\""
attr mutable ""
par wirelessNetwork.visualizer.linkBreakVisualizer packetFilter "(omnetpp::cValueHolder)holder: \"*\""
attr mutable ""
par wirelessNetwork.visualizer.linkBreakVisualizer icon "\"status/stop\""
par wirelessNetwork.visualizer.linkBreakVisualizer iconTintAmount 0
par wirelessNetwork.visualizer.linkBreakVisualizer iconTintColor "\"\""
par wirelessNetwork.visualizer.linkBreakVisualizer fadeOutMode "\"realTime\""
attr enum realTime,animationTime,simulationTime
par wirelessNetwork.visualizer.linkBreakVisualizer fadeOutTime 1s
attr unit s
par wirelessNetwork.visualizer.linkBreakVisualizer fadeOutAnimationSpeed 0
par wirelessNetwork.visualizer.linkBreakVisualizer zIndex 2
par wirelessNetwork.visualizer.ieee80211Visualizer typename "\"inet.visualizer.canvas.linklayer.Ieee80211CanvasVisualizer\""
par wirelessNetwork.visualizer.ieee80211Visualizer visualizationTargetModule "\"^.^\""
par wirelessNetwork.visualizer.ieee80211Visualizer visualizationSubjectModule "\"^.^\""
par wirelessNetwork.visualizer.ieee80211Visualizer tags "\"\""
par wirelessNetwork.visualizer.ieee80211Visualizer networkNodeVisualizerModule "\"^.networkNodeVisualizer\""
par wirelessNetwork.visualizer.ieee80211Visualizer displayAssociations false
par wirelessNetwork.visualizer.ieee80211Visualizer nodeFilter "\"*\""
attr mutable ""
par wirelessNetwork.visualizer.ieee80211Visualizer interfaceFilter "\"*\""
attr mutable ""
par wirelessNetwork.visualizer.ieee80211Visualizer minPower -85dBm
attr unit dBm
par wirelessNetwork.visualizer.ieee80211Visualizer maxPower -50dBm
attr unit dBm
par wirelessNetwork.visualizer.ieee80211Visualizer icons "\"misc/signal_power_0 misc/signal_power_1 misc/signal_power_2 misc/signal_power_3\""
par wirelessNetwork.visualizer.ieee80211Visualizer iconColor "\"dark\""
attr enum light,dark
par wirelessNetwork.visualizer.ieee80211Visualizer labelFont "\"<default>\""
par wirelessNetwork.visualizer.ieee80211Visualizer labelColor "\"black\""
par wirelessNetwork.visualizer.ieee80211Visualizer placementHint "\"top\""
par wirelessNetwork.visualizer.ieee80211Visualizer placementPriority 0
par wirelessNetwork.visualizer.ieee80211Visualizer zIndex 2
par wirelessNetwork.visualizer.networkRouteVisualizer typename "\"inet.visualizer.canvas.networklayer.NetworkRouteCanvasVisualizer\""
par wirelessNetwork.visualizer.networkRouteVisualizer visualizationTargetModule "\"^.^\""
par wirelessNetwork.visualizer.networkRouteVisualizer visualizationSubjectModule "\"^.^\""
par wirelessNetwork.visualizer.networkRouteVisualizer tags "\"\""
par wirelessNetwork.visualizer.networkRouteVisualizer displayRoutes false
par wirelessNetwork.visualizer.networkRouteVisualizer startPathSignal "\"packetReceivedFromUpper\""
par wirelessNetwork.visualizer.networkRouteVisualizer extendPathSignal "\"packetReceivedFromLower\""
par wirelessNetwork.visualizer.networkRouteVisualizer endPathSignal "\"packetSentToUpper\""
par wirelessNetwork.visualizer.networkRouteVisualizer nodeFilter "\"*\""
attr mutable ""
par wirelessNetwork.visualizer.networkRouteVisualizer packetFilter "(omnetpp::cValueHolder)holder: \"*\""
attr mutable ""
par wirelessNetwork.visualizer.networkRouteVisualizer lineColor "\"dark\""
attr enum light,dark
par wirelessNetwork.visualizer.networkRouteVisualizer lineStyle "\"solid\""
par wirelessNetwork.visualizer.networkRouteVisualizer lineWidth 3
par wirelessNetwork.visualizer.networkRouteVisualizer lineSmooth false
par wirelessNetwork.visualizer.networkRouteVisualizer lineShift 16
par wirelessNetwork.visualizer.networkRouteVisualizer lineShiftMode "\"normal\""
par wirelessNetwork.visualizer.networkRouteVisualizer lineContactSpacing 3
par wirelessNetwork.visualizer.networkRouteVisualizer lineContactMode "\"rectangular\""
attr enum circular,rectangular
par wirelessNetwork.visualizer.networkRouteVisualizer labelFormat "\"%n\""
par wirelessNetwork.visualizer.networkRouteVisualizer labelFont "\"<default>, 8px\""
par wirelessNetwork.visualizer.networkRouteVisualizer labelColor "\"\""
par wirelessNetwork.visualizer.networkRouteVisualizer fadeOutMode "\"realTime\""
attr enum realTime,animationTime,simulationTime
par wirelessNetwork.visualizer.networkRouteVisualizer fadeOutTime 1s
attr unit s
par wirelessNetwork.visualizer.networkRouteVisualizer fadeOutAnimationSpeed 0
par wirelessNetwork.visualizer.networkRouteVisualizer zIndex 3
par wirelessNetwork.visualizer.routingTableVisualizer typename "\"inet.visualizer.canvas.networklayer.RoutingTableCanvasVisualizer\""
par wirelessNetwork.visualizer.routingTableVisualizer visualizationTargetModule "\"^.^\""
par wirelessNetwork.visualizer.routingTableVisualizer visualizationSubjectModule "\"^.^\""
par wirelessNetwork.visualizer.routingTableVisualizer tags "\"\""
par wirelessNetwork.visualizer.routingTableVisualizer displayRoutingTables false
par wirelessNetwork.visualizer.routingTableVisualizer displayRoutesIndividually true
par wirelessNetwork.visualizer.routingTableVisualizer displayLabels true
par wirelessNetwork.visualizer.routingTableVisualizer destinationFilter "\"*\""
attr mutable ""
par wirelessNetwork.visualizer.routingTableVisualizer nodeFilter "\"*\""
attr mutable ""
par wirelessNetwork.visualizer.routingTableVisualizer lineColor "\"black\""
par wirelessNetwork.visualizer.routingTableVisualizer lineStyle "\"solid\""
par wirelessNetwork.visualizer.routingTableVisualizer lineWidth 2
par wirelessNetwork.visualizer.routingTableVisualizer lineShift 16
par wirelessNetwork.visualizer.routingTableVisualizer lineShiftMode "\"normal\""
par wirelessNetwork.visualizer.routingTableVisualizer lineContactSpacing 3
par wirelessNetwork.visualizer.routingTableVisualizer lineContactMode "\"rectangular\""
attr enum circular,rectangular
par wirelessNetwork.visualizer.routingTableVisualizer labelFormat "\"%d/%m -> %g (%n)\""
attr mutable ""
par wirelessNetwork.visualizer.routingTableVisualizer labelFont "\"<default>, 8px\""
par wirelessNetwork.visualizer.routingTableVisualizer labelColor "\"black\""
par wirelessNetwork.visualizer.routingTableVisualizer zIndex 0
par wirelessNetwork.visualizer.transportRouteVisualizer typename "\"inet.visualizer.canvas.transportlayer.TransportRouteCanvasVisualizer\""
par wirelessNetwork.visualizer.transportRouteVisualizer visualizationTargetModule "\"^.^\""
par wirelessNetwork.visualizer.transportRouteVisualizer visualizationSubjectModule "\"^.^\""
par wirelessNetwork.visualizer.transportRouteVisualizer tags "\"\""
par wirelessNetwork.visualizer.transportRouteVisualizer displayRoutes false
par wirelessNetwork.visualizer.transportRouteVisualizer startPathSignal "\"packetReceivedFromUpper\""
par wirelessNetwork.visualizer.transportRouteVisualizer extendPathSignal "\"packetReceivedFromLower\""
par wirelessNetwork.visualizer.transportRouteVisualizer endPathSignal "\"packetSentToUpper\""
par wirelessNetwork.visualizer.transportRouteVisualizer nodeFilter "\"*\""
attr mutable ""
par wirelessNetwork.visualizer.transportRouteVisualizer packetFilter "(omnetpp::cValueHolder)holder: \"*\""
attr mutable ""
par wirelessNetwork.visualizer.transportRouteVisualizer lineColor "\"dark\""
attr enum light,dark
par wirelessNetwork.visualizer.transportRouteVisualizer lineStyle "\"solid\""
par wirelessNetwork.visualizer.transportRouteVisualizer lineWidth 3
par wirelessNetwork.visualizer.transportRouteVisualizer lineSmooth false
par wirelessNetwork.visualizer.transportRouteVisualizer lineShift 16
par wirelessNetwork.visualizer.transportRouteVisualizer lineShiftMode "\"normal\""
par wirelessNetwork.visualizer.transportRouteVisualizer lineContactSpacing 3
par wirelessNetwork.visualizer.transportRouteVisualizer lineContactMode "\"rectangular\""
attr enum circular,rectangular
par wirelessNetwork.visualizer.transportRouteVisualizer labelFormat "\"%n\""
par wirelessNetwork.visualizer.transportRouteVisualizer labelFont "\"<default>, 8px\""
par wirelessNetwork.visualizer.transportRouteVisualizer labelColor "\"\""
par wirelessNetwork.visualizer.transportRouteVisualizer fadeOutMode "\"realTime\""
attr enum realTime,animationTime,simulationTime
par wirelessNetwork.visualizer.transportRouteVisualizer fadeOutTime 1s
attr unit s
par wirelessNetwork.visualizer.transportRouteVisualizer fadeOutAnimationSpeed 0
par wirelessNetwork.visualizer.transportRouteVisualizer zIndex 4
par wirelessNetwork.visualizer.transportConnectionVisualizer typename "\"inet.visualizer.canvas.transportlayer.TransportConnectionCanvasVisualizer\""
par wirelessNetwork.visualizer.transportConnectionVisualizer visualizationTargetModule "\"^.^\""
par wirelessNetwork.visualizer.transportConnectionVisualizer visualizationSubjectModule "\"^.^\""
par wirelessNetwork.visualizer.transportConnectionVisualizer tags "\"\""
par wirelessNetwork.visualizer.transportConnectionVisualizer networkNodeVisualizerModule "\"^.networkNodeVisualizer\""
par wirelessNetwork.visualizer.transportConnectionVisualizer displayTransportConnections false
par wirelessNetwork.visualizer.transportConnectionVisualizer sourceNodeFilter "\"*\""
attr mutable ""
par wirelessNetwork.visualizer.transportConnectionVisualizer sourcePortFilter "\"*\""
attr mutable ""
par wirelessNetwork.visualizer.transportConnectionVisualizer destinationNodeFilter "\"*\""
attr mutable ""
par wirelessNetwork.visualizer.transportConnectionVisualizer destinationPortFilter "\"*\""
attr mutable ""
par wirelessNetwork.visualizer.transportConnectionVisualizer icon "\"misc/marker_s\""
par wirelessNetwork.visualizer.transportConnectionVisualizer iconColor "\"dark\""
attr enum light,dark
par wirelessNetwork.visualizer.transportConnectionVisualizer labelFont "\"<default>\""
par wirelessNetwork.visualizer.transportConnectionVisualizer labelColor "\"black\""
par wirelessNetwork.visualizer.transportConnectionVisualizer placementHint "\"top\""
par wirelessNetwork.visualizer.transportConnectionVisualizer placementPriority 0
par wirelessNetwork.visualizer.transportConnectionVisualizer zIndex 4
par wirelessNetwork.visualizer.failureProtectionConfigurationVisualizer typename "\"inet.visualizer.canvas.configurator.FailureProtectionConfigurationCanvasVisualizer\""
par wirelessNetwork.visualizer.failureProtectionConfigurationVisualizer visualizationTargetModule "\"^.^\""
par wirelessNetwork.visualizer.failureProtectionConfigurationVisualizer visualizationSubjectModule "\"^.^\""
par wirelessNetwork.visualizer.failureProtectionConfigurationVisualizer tags "\"\""
par wirelessNetwork.visualizer.failureProtectionConfigurationVisualizer displayTrees false
par wirelessNetwork.visualizer.failureProtectionConfigurationVisualizer lineColor "\"dark\""
attr enum light,dark
par wirelessNetwork.visualizer.failureProtectionConfigurationVisualizer lineStyle "\"solid\""
par wirelessNetwork.visualizer.failureProtectionConfigurationVisualizer lineWidth 3
par wirelessNetwork.visualizer.failureProtectionConfigurationVisualizer lineSmooth false
par wirelessNetwork.visualizer.failureProtectionConfigurationVisualizer lineShift 16
par wirelessNetwork.visualizer.failureProtectionConfigurationVisualizer lineShiftMode "\"normal\""
par wirelessNetwork.visualizer.failureProtectionConfigurationVisualizer lineContactSpacing 3
par wirelessNetwork.visualizer.failureProtectionConfigurationVisualizer lineContactMode "\"rectangular\""
attr enum circular,rectangular
par wirelessNetwork.visualizer.failureProtectionConfigurationVisualizer failureProtectionConfiguratorModule "\"failureProtectionConfigurator\""
par wirelessNetwork.visualizer.failureProtectionConfigurationVisualizer streamFilter "\"*\""
par wirelessNetwork.visualizer.failureProtectionConfigurationVisualizer zIndex 3
par wirelessNetwork.visualizer.streamRedundancyConfigurationVisualizer typename "\"inet.visualizer.canvas.configurator.StreamRedundancyConfigurationCanvasVisualizer\""
par wirelessNetwork.visualizer.streamRedundancyConfigurationVisualizer visualizationTargetModule "\"^.^\""
par wirelessNetwork.visualizer.streamRedundancyConfigurationVisualizer visualizationSubjectModule "\"^.^\""
par wirelessNetwork.visualizer.streamRedundancyConfigurationVisualizer tags "\"\""
par wirelessNetwork.visualizer.streamRedundancyConfigurationVisualizer displayTrees false
par wirelessNetwork.visualizer.streamRedundancyConfigurationVisualizer lineColor "\"dark\""
attr enum light,dark
par wirelessNetwork.visualizer.streamRedundancyConfigurationVisualizer lineStyle "\"solid\""
par wirelessNetwork.visualizer.streamRedundancyConfigurationVisualizer lineWidth 3
par wirelessNetwork.visualizer.streamRedundancyConfigurationVisualizer lineSmooth false
par wirelessNetwork.visualizer.streamRedundancyConfigurationVisualizer lineShift 16
par wirelessNetwork.visualizer.streamRedundancyConfigurationVisualizer lineShiftMode "\"normal\""
par wirelessNetwork.visualizer.streamRedundancyConfigurationVisualizer lineContactSpacing 3
par wirelessNetwork.visualizer.streamRedundancyConfigurationVisualizer lineContactMode "\"rectangular\""
attr enum circular,rectangular
par wirelessNetwork.visualizer.streamRedundancyConfigurationVisualizer streamRedundancyConfiguratorModule "\"streamRedundancyConfigurator\""
par wirelessNetwork.visualizer.streamRedundancyConfigurationVisualizer streamFilter "\"*\""
par wirelessNetwork.visualizer.streamRedundancyConfigurationVisualizer zIndex 3
par wirelessNetwork.visualizer typename "\"inet.visualizer.canvas.integrated.IntegratedCanvasVisualizer\""
par wirelessNetwork.configurator typename "\"inet.networklayer.configurator.ipv4.Ipv4NetworkConfigurator\""
par wirelessNetwork.configurator minLinkWeight 0.001
par wirelessNetwork.configurator configureIsolatedNetworksSeparatly false
par wirelessNetwork.configurator config "<config>...</config> at content:1"
par wirelessNetwork.configurator assignAddresses true
par wirelessNetwork.configurator assignUniqueAddresses true
par wirelessNetwork.configurator assignDisjunctSubnetAddresses true
par wirelessNetwork.configurator addStaticRoutes true
par wirelessNetwork.configurator addDefaultRoutes true
par wirelessNetwork.configurator addSubnetRoutes true
par wirelessNetwork.configurator addDirectRoutes true
par wirelessNetwork.configurator optimizeRoutes true
par wirelessNetwork.configurator dumpTopology false
par wirelessNetwork.configurator dumpLinks false
par wirelessNetwork.configurator dumpAddresses false
par wirelessNetwork.configurator dumpRoutes false
par wirelessNetwork.configurator dumpConfig "\"\""
par wirelessNetwork.radioMedium.propagation typename "\"inet.physicallayer.wireless.common.propagation.ConstantSpeedPropagation\""
par wirelessNetwork.radioMedium.propagation propagationSpeed 2.99792e+08mps
attr unit mps
par wirelessNetwork.radioMedium.propagation ignoreMovementDuringTransmission true
par wirelessNetwork.radioMedium.propagation ignoreMovementDuringPropagation true
par wirelessNetwork.radioMedium.propagation ignoreMovementDuringReception true
scalar wirelessNetwork.radioMedium.propagation "Arrival computation count" 50440
par wirelessNetwork.radioMedium.analogModel typename "\"inet.physicallayer.wireless.unitdisk.UnitDiskAnalogModel\""
par wirelessNetwork.radioMedium.pathLoss typename "\"inet.physicallayer.wireless.common.pathloss.FreeSpacePathLoss\""
par wirelessNetwork.radioMedium.pathLoss alpha 2
par wirelessNetwork.radioMedium.pathLoss systemLoss 0dB
attr unit dB
par wirelessNetwork.radioMedium.mediumLimitCache typename "\"inet.physicallayer.wireless.common.medium.MediumLimitCache\""
par wirelessNetwork.radioMedium.mediumLimitCache centerFrequency "nan Hz"
attr unit Hz
par wirelessNetwork.radioMedium.mediumLimitCache maxSpeed "nan mps"
attr unit mps
par wirelessNetwork.radioMedium.mediumLimitCache maxTransmissionPower "nan W"
attr unit W
par wirelessNetwork.radioMedium.mediumLimitCache minInterferencePower "nan dBm"
attr unit dBm
par wirelessNetwork.radioMedium.mediumLimitCache minReceptionPower "nan dBm"
attr unit dBm
par wirelessNetwork.radioMedium.mediumLimitCache maxAntennaGain 0dB
attr unit dB
par wirelessNetwork.radioMedium.mediumLimitCache minInterferenceTime 1e-12s
attr unit s
par wirelessNetwork.radioMedium.mediumLimitCache maxTransmissionDuration 0.01s
attr unit s
par wirelessNetwork.radioMedium.mediumLimitCache maxCommunicationRange "nan m"
attr unit m
par wirelessNetwork.radioMedium.mediumLimitCache maxInterferenceRange "nan m"
attr unit m
par wirelessNetwork.radioMedium.communicationCache typename "\"inet.physicallayer.wireless.common.communicationcache.VectorCommunicationCache\""
par wirelessNetwork.radioMedium typename "\"inet.physicallayer.wireless.unitdisk.UnitDiskRadioMedium\""
par wirelessNetwork.radioMedium physicalEnvironmentModule "\"physicalEnvironment\""
par wirelessNetwork.radioMedium signalAnalogRepresentation "\"unitDisk\""
attr enum unitDisk,scalar,dimensional
par wirelessNetwork.radioMedium rangeFilter "\"\""
par wirelessNetwork.radioMedium radioModeFilter false
par wirelessNetwork.radioMedium listeningFilter false
par wirelessNetwork.radioMedium macAddressFilter false
par wirelessNetwork.radioMedium recordTransmissionLog false
par wirelessNetwork.radioMedium recordReceptionLog false
scalar wirelessNetwork.radioMedium "transmission count" 2522
scalar wirelessNetwork.radioMedium "signal send count" 50440
scalar wirelessNetwork.radioMedium "reception computation count" 50440
scalar wirelessNetwork.radioMedium "interference computation count" 153759
scalar wirelessNetwork.radioMedium "reception decision computation count" 6512
scalar wirelessNetwork.radioMedium "listening decision computation count" 96807
scalar wirelessNetwork.radioMedium "reception cache hit" 80.566514609789
attr unit %
scalar wirelessNetwork.radioMedium "interference cache hit" 66.666666666667
attr unit %
scalar wirelessNetwork.radioMedium "noise cache hit" 0
attr unit %
scalar wirelessNetwork.radioMedium "snir cache hit" 50
attr unit %
scalar wirelessNetwork.radioMedium "reception decision cache hit" 50
attr unit %
scalar wirelessNetwork.radioMedium "reception result cache hit" 0
attr unit %
par wirelessNetwork.host.radioIn[0].channel typename "\"ned.IdealChannel\""
par wirelessNetwork.host.mobility typename "\"inet.mobility.static.StationaryMobility\""
par wirelessNetwork.host.mobility subjectModule "\"^\""
par wirelessNetwork.host.mobility coordinateSystemModule "\"\""
par wirelessNetwork.host.mobility displayStringTextFormat "\"p: %p\\nv: %v\""
attr mutable ""
par wirelessNetwork.host.mobility updateDisplayString true
par wirelessNetwork.host.mobility constraintAreaMinX "-inf m"
attr unit m
par wirelessNetwork.host.mobility constraintAreaMinY "-inf m"
attr unit m
par wirelessNetwork.host.mobility constraintAreaMinZ "-inf m"
attr unit m
par wirelessNetwork.host.mobility constraintAreaMaxX "inf m"
attr unit m
par wirelessNetwork.host.mobility constraintAreaMaxY "inf m"
attr unit m
par wirelessNetwork.host.mobility constraintAreaMaxZ "inf m"
attr unit m
par wirelessNetwork.host.mobility initialX "nan m"
attr unit m
par wirelessNetwork.host.mobility initialY "nan m"
attr unit m
par wirelessNetwork.host.mobility initialZ 0m
attr unit m
par wirelessNetwork.host.mobility initialLatitude "nan deg"
attr unit deg
par wirelessNetwork.host.mobility initialLongitude "nan deg"
attr unit deg
par wirelessNetwork.host.mobility initialAltitude 0m
attr unit m
par wirelessNetwork.host.mobility initialHeading 0deg
attr unit deg
par wirelessNetwork.host.mobility initialElevation 0deg
attr unit deg
par wirelessNetwork.host.mobility initialBank 0deg
attr unit deg
par wirelessNetwork.host.mobility initFromDisplayString true
par wirelessNetwork.host.mobility updateFromDisplayString true
par wirelessNetwork.host.interfaceTable typename "\"inet.networklayer.common.InterfaceTable\""
par wirelessNetwork.host.interfaceTable displayAddresses false
par wirelessNetwork.host.cb typename "\"inet.common.MessageDispatcher\""
par wirelessNetwork.host.cb displayStringTextFormat "\"processed %p pk (%l)\""
par wirelessNetwork.host.cb forwardServiceRegistration true
par wirelessNetwork.host.cb forwardProtocolRegistration true
par wirelessNetwork.host.bl typename "\"inet.common.MessageDispatcher\""
par wirelessNetwork.host.bl displayStringTextFormat "\"processed %p pk (%l)\""
par wirelessNetwork.host.bl forwardServiceRegistration true
par wirelessNetwork.host.bl forwardProtocolRegistration true
par wirelessNetwork.host.li typename "\"inet.common.MessageDispatcher\""
par wirelessNetwork.host.li displayStringTextFormat "\"processed %p pk (%l)\""
par wirelessNetwork.host.li forwardServiceRegistration true
par wirelessNetwork.host.li forwardProtocolRegistration true
par wirelessNetwork.host.lo[0].upperLayerIn.channel typename "\"ned.IdealChannel\""
par wirelessNetwork.host.lo[0].lo.upperLayerOut.channel typename "\"ned.IdealChannel\""
par wirelessNetwork.host.lo[0].lo typename "\"inet.linklayer.loopback.Loopback\""
par wirelessNetwork.host.lo[0].lo interfaceTableModule "\"wirelessNetwork.host.interfaceTable\""
par wirelessNetwork.host.lo[0].lo mtu 4470B
attr unit B
scalar wirelessNetwork.host.lo[0].lo rcvdPkFromHl:count 0
attr interpolationmode none
attr recordingmode count
attr source packetReceivedFromUpper
attr title "packets received from higher layer, count"
scalar wirelessNetwork.host.lo[0].lo rcvdPkFromHl:sum(packetBytes) 0
attr interpolationmode none
attr recordingmode sum(packetBytes)
attr source packetReceivedFromUpper
attr title "packets received from higher layer, sum(packetBytes)"
scalar wirelessNetwork.host.lo[0].lo passedUpPk:count 0
attr interpolationmode none
attr recordingmode count
attr source packetSentToUpper
attr title "packets passed to higher layer, count"
scalar wirelessNetwork.host.lo[0].lo passedUpPk:sum(packetBytes) 0
attr interpolationmode none
attr recordingmode sum(packetBytes)
attr source packetSentToUpper
attr title "packets passed to higher layer, sum(packetBytes)"
par wirelessNetwork.host.lo[0] typename "\"inet.linklayer.loopback.LoopbackInterface\""
par wirelessNetwork.host.lo[0] displayStringTextFormat "\"%a (%i)\\n%m\""
par wirelessNetwork.host.lo[0] recordPcap false
par wirelessNetwork.host.lo[0] numPcapRecorders 0
par wirelessNetwork.host.lo[0] interfaceTableModule "\"wirelessNetwork.host.interfaceTable\""
scalar wirelessNetwork.host.lo[0] packetDropInterfaceDown:count 0
attr interpolationmode none
attr recordingmode count
attr source packetDropReasonIsInterfaceDown(packetDropped)
attr title "packet drops: interface down, count"
scalar wirelessNetwork.host.lo[0] packetDropInterfaceDown:sum(packetBytes) 0
attr interpolationmode none
attr recordingmode sum(packetBytes)
attr source packetDropReasonIsInterfaceDown(packetDropped)
attr title "packet drops: interface down, sum(packetBytes)"
scalar wirelessNetwork.host.lo[0] packetDropNoCarrier:count 0
attr interpolationmode none
attr recordingmode count
attr source packetDropReasonIsNoCarrier(packetDropped)
attr title "packet drops: no carrier, count"
scalar wirelessNetwork.host.lo[0] packetDropNoCarrier:sum(packetBytes) 0
attr interpolationmode none
attr recordingmode sum(packetBytes)
attr source packetDropReasonIsNoCarrier(packetDropped)
attr title "packet drops: no carrier, sum(packetBytes)"
par wirelessNetwork.host.wlan[0].upperLayerIn.channel typename "\"ned.IdealChannel\""
par wirelessNetwork.host.wlan[0].radioIn.channel typename "\"ned.IdealChannel\""
par wirelessNetwork.host.wlan[0].mac.upperLayerOut.channel typename "\"ned.IdealChannel\""
par wirelessNetwork.host.wlan[0].queue typename "\"inet.queueing.queue.DropTailQueue\""
par wirelessNetwork.host.wlan[0].queue displayStringTextFormat "\"contains %p pk (%l) pushed %u\\npulled %o removed %r dropped %d\""
par wirelessNetwork.host.wlan[0].queue packetCapacity 100
par wirelessNetwork.host.wlan[0].queue dataCapacity -1b
attr unit b
par wirelessNetwork.host.wlan[0].queue dropperClass "\"inet::queueing::PacketAtCollectionEndDropper\""
par wirelessNetwork.host.wlan[0].queue comparatorClass "\"\""
par wirelessNetwork.host.wlan[0].queue bufferModule "\"\""
scalar wirelessNetwork.host.wlan[0].queue queueLength:last 0
attr autoWarmupFilter false
attr interpolationmode sample-hold
attr recordingmode last
attr source "warmup(atomic(constant0(packetPushEnded) + count(packetPushStarted) - count(packetPulled) - count(packetRemoved) - count(packetDropped)))"
attr title "queue length, last"
attr unit pk
scalar wirelessNetwork.host.wlan[0].queue queueLength:max 0
attr autoWarmupFilter false
attr interpolationmode sample-hold
attr recordingmode max
attr source "warmup(atomic(constant0(packetPushEnded) + count(packetPushStarted) - count(packetPulled) - count(packetRemoved) - count(packetDropped)))"
attr title "queue length, max"
attr unit pk
scalar wirelessNetwork.host.wlan[0].queue queueLength:timeavg 0
attr autoWarmupFilter false
attr interpolationmode sample-hold
attr recordingmode timeavg
attr source "warmup(atomic(constant0(packetPushEnded) + count(packetPushStarted) - count(packetPulled) - count(packetRemoved) - count(packetDropped)))"
attr title "queue length, timeavg"
attr unit pk
scalar wirelessNetwork.host.wlan[0].queue queueBitLength:last 0
attr autoWarmupFilter false
attr interpolationmode sample-hold
attr recordingmode last
attr source "warmup(atomic(constant0(packetPushEnded) + sum(packetLength(packetPushStarted)) - sum(packetLength(packetPulled)) - sum(packetLength(packetRemoved)) - sum(packetLength(packetDropped))))"
attr title "queue bit length, last"
attr unit b
scalar wirelessNetwork.host.wlan[0].queue queueBitLength:max 0
attr autoWarmupFilter false
attr interpolationmode sample-hold
attr recordingmode max
attr source "warmup(atomic(constant0(packetPushEnded) + sum(packetLength(packetPushStarted)) - sum(packetLength(packetPulled)) - sum(packetLength(packetRemoved)) - sum(packetLength(packetDropped))))"
attr title "queue bit length, max"
attr unit b
scalar wirelessNetwork.host.wlan[0].queue queueBitLength:timeavg 0
attr autoWarmupFilter false
attr interpolationmode sample-hold
attr recordingmode timeavg
attr source "warmup(atomic(constant0(packetPushEnded) + sum(packetLength(packetPushStarted)) - sum(packetLength(packetPulled)) - sum(packetLength(packetRemoved)) - sum(packetLength(packetDropped))))"
attr title "queue bit length, timeavg"
attr unit b
statistic wirelessNetwork.host.wlan[0].queue queueingTime:histogram
field count 118
field mean 0
field stddev 0
field min 0
field max 0
field sum 0
field sqrsum 0
attr interpolationmode none
attr recordingmode histogram
attr source queueingTime(packetPulled)
attr title "queueing times"
attr unit s
bin	-inf	0
bin	-0.5	0
bin	-0.48	0
bin	-0.46	0
bin	-0.44	0
bin	-0.42	0
bin	-0.4	0
bin	-0.38	0
bin	-0.36	0
bin	-0.34	0
bin	-0.32	0
bin	-0.3	0
bin	-0.28	0
bin	-0.26	0
bin	-0.24	0
bin	-0.22	0
bin	-0.2	0
bin	-0.18	0
bin	-0.16	0
bin	-0.14	0
bin	-0.12	0
bin	-0.1	0
bin	-0.08	0
bin	-0.06	0
bin	-0.04	0
bin	-0.02	0
bin	0	118
bin	0.02	0
bin	0.04	0
bin	0.06	0
bin	0.08	0
bin	0.1	0
bin	0.12	0
bin	0.14	0
bin	0.16	0
bin	0.18	0
bin	0.2	0
bin	0.22	0
bin	0.24	0
bin	0.26	0
bin	0.28	0
bin	0.3	0
bin	0.32	0
bin	0.34	0
bin	0.36	0
bin	0.38	0
bin	0.4	0
bin	0.42	0
bin	0.44	0
bin	0.46	0
bin	0.48	0
bin	0.5	0
scalar wirelessNetwork.host.wlan[0].queue outgoingPackets:count 118
attr recordingmode count
attr source packetPulled
attr title "outgoing packets, count"
attr unit pk
scalar wirelessNetwork.host.wlan[0].queue outgoingPacketLengths:sum 536288
attr interpolationmode none
attr recordingmode sum
attr source packetLength(packetPulled)
attr title "outgoing packet lengths, sum"
attr unit b
statistic wirelessNetwork.host.wlan[0].queue outgoingPacketLengths:histogram
field count 118
field mean 4544.813559322
field stddev 3989.4286825066
field min 288
field max 8320
field sum 536288
field sqrsum 4299447296
attr interpolationmode none
attr recordingmode histogram
attr source packetLength(packetPulled)
attr title "outgoing packet lengths"
attr unit b
bin	-inf	0
bin	0	0
bin	200	29
bin	400	27
bin	600	0
bin	800	0
bin	1000	0
bin	1200	0
bin	1400	0
bin	1600	0
bin	1800	0
bin	2000	0
bin	2200	0
bin	2400	0
bin	2600	0
bin	2800	0
bin	3000	0
bin	3200	0
bin	3400	0
bin	3600	0
bin	3800	0
bin	4000	0
bin	4200	0
bin	4400	0
bin	4600	0
bin	4800	0
bin	5000	0
bin	5200	0
bin	5400	0
bin	5600	0
bin	5800	0
bin	6000	0
bin	6200	0
bin	6400	0
bin	6600	0
bin	6800	0
bin	7000	0
bin	7200	0
bin	7400	0
bin	7600	0
bin	7800	0
bin	8000	0
bin	8200	62
bin	8400	0
bin	8600	0
bin	8800	0
bin	9000	0
bin	9200	0
bin	9400	0
bin	9600	0
bin	9800	0
bin	10000	0
bin	10200	0
bin	10400	0
statistic wirelessNetwork.host.wlan[0].queue flowQueueingTime:histogram
field count 0
field mean nan
field stddev nan
field min nan
field max nan
field sum 0
field sqrsum 0
attr interpolationmode none
attr recordingmode histogram
attr source queueingTime(demuxFlow(packetPulled))
attr title "flow queueing times"
attr unit s
bin	-inf	0
bin	0	0
bin	1	0
scalar wirelessNetwork.host.wlan[0].queue incomingPackets:count 118
attr recordingmode count
attr source packetPushStarted
attr title "incoming packets, count"
attr unit pk
scalar wirelessNetwork.host.wlan[0].queue incomingPacketLengths:sum 536288
attr interpolationmode none
attr recordingmode sum
attr source packetLength(packetPushStarted)
attr title "incoming packet lengths, sum"
attr unit b
statistic wirelessNetwork.host.wlan[0].queue incomingPacketLengths:histogram
field count 118
field mean 4544.813559322
field stddev 3989.4286825066
field min 288
field max 8320
field sum 536288
field sqrsum 4299447296
attr interpolationmode none
attr recordingmode histogram
attr source packetLength(packetPushStarted)
attr title "incoming packet lengths"
attr unit b
bin	-inf	0
bin	0	0
bin	200	29
bin	400	27
bin	600	0
bin	800	0
bin	1000	0
bin	1200	0
bin	1400	0
bin	1600	0
bin	1800	0
bin	2000	0
bin	2200	0
bin	2400	0
bin	2600	0
bin	2800	0
bin	3000	0
bin	3200	0
bin	3400	0
bin	3600	0
bin	3800	0
bin	4000	0
bin	4200	0
bin	4400	0
bin	4600	0
bin	4800	0
bin	5000	0
bin	5200	0
bin	5400	0
bin	5600	0
bin	5800	0
bin	6000	0
bin	6200	0
bin	6400	0
bin	6600	0
bin	6800	0
bin	7000	0
bin	7200	0
bin	7400	0
bin	7600	0
bin	7800	0
bin	8000	0
bin	8200	62
bin	8400	0
bin	8600	0
bin	8800	0
bin	9000	0
bin	9200	0
bin	9400	0
bin	9600	0
bin	9800	0
bin	10000	0
bin	10200	0
bin	10400	0
scalar wirelessNetwork.host.wlan[0].queue droppedPacketsQueueOverflow:count 0
attr interpolationmode none
attr recordingmode count
attr source packetDropReasonIsQueueOverflow(packetDropped)
attr title "dropped packets: queue overflow, count"
attr unit pk
scalar wirelessNetwork.host.wlan[0].queue droppedPacketLengthsQueueOverflow:sum 0
attr interpolationmode none
attr recordingmode sum
attr source packetLength(packetDropReasonIsQueueOverflow(packetDropped))
attr title "dropped packet lengths: queue overflow, sum"
attr unit b
par wirelessNetwork.host.wlan[0].mac typename "\"inet.linklayer.acking.AckingMac\""
par wirelessNetwork.host.wlan[0].mac interfaceTableModule "\"wirelessNetwork.host.interfaceTable\""
par wirelessNetwork.host.wlan[0].mac address "\"auto\""
attr mutable ""
par wirelessNetwork.host.wlan[0].mac bitrate 2e+06bps
attr unit bps
par wirelessNetwork.host.wlan[0].mac mtu 4470B
attr unit B
par wirelessNetwork.host.wlan[0].mac headerLength 23B
attr unit B
par wirelessNetwork.host.wlan[0].mac promiscuous false
par wirelessNetwork.host.wlan[0].mac fullDuplex true
par wirelessNetwork.host.wlan[0].mac useAck true
par wirelessNetwork.host.wlan[0].mac ackTimeout 0.1s
attr unit s
scalar wirelessNetwork.host.wlan[0].mac rcvdPkFromLl:count 368
attr interpolationmode none
attr recordingmode count
attr source packetReceivedFromLower
attr title "packets received from lower layer, count"
scalar wirelessNetwork.host.wlan[0].mac rcvdPkFromLl:sum(packetBytes) 86100
attr interpolationmode none
attr recordingmode sum(packetBytes)
attr source packetReceivedFromLower
attr title "packets received from lower layer, sum(packetBytes)"
scalar wirelessNetwork.host.wlan[0].mac sentDownPk:count 118
attr interpolationmode none
attr recordingmode count
attr source packetSentToLower
attr title "packets sent to lower layer, count"
scalar wirelessNetwork.host.wlan[0].mac sentDownPk:sum(packetBytes) 69750
attr interpolationmode none
attr recordingmode sum(packetBytes)
attr source packetSentToLower
attr title "packets sent to lower layer, sum(packetBytes)"
scalar wirelessNetwork.host.wlan[0].mac rcvdPkFromHl:count 118
attr interpolationmode none
attr recordingmode count
attr source packetReceivedFromUpper
attr title "packets received from higher layer, count"
scalar wirelessNetwork.host.wlan[0].mac rcvdPkFromHl:sum(packetBytes) 67036
attr interpolationmode none
attr recordingmode sum(packetBytes)
attr source packetReceivedFromUpper
attr title "packets received from higher layer, sum(packetBytes)"
scalar wirelessNetwork.host.wlan[0].mac passedUpPk:count 294
attr interpolationmode none
attr recordingmode count
attr source packetSentToUpper
attr title "packets passed to higher layer, count"
scalar wirelessNetwork.host.wlan[0].mac passedUpPk:sum(packetBytes) 14564
attr interpolationmode none
attr recordingmode sum(packetBytes)
attr source packetSentToUpper
attr title "packets passed to higher layer, sum(packetBytes)"
scalar wirelessNetwork.host.wlan[0].mac packetDropIncorrectlyReceived:count 0
attr interpolationmode none
attr recordingmode count
attr source packetDropReasonIsIncorrectlyReceived(packetDropped)
attr title "packet drop: incorrectly received, count"
scalar wirelessNetwork.host.wlan[0].mac packetDropIncorrectlyReceived:sum(packetBytes) 0
attr interpolationmode none
attr recordingmode sum(packetBytes)
attr source packetDropReasonIsIncorrectlyReceived(packetDropped)
attr title "packet drop: incorrectly received, sum(packetBytes)"
scalar wirelessNetwork.host.wlan[0].mac packetDropInterfaceDown:count 0
attr interpolationmode none
attr recordingmode count
attr source packetDropReasonIsInterfaceDown(packetDropped)
attr title "packet drop: interface down, count"
scalar wirelessNetwork.host.wlan[0].mac packetDropInterfaceDown:sum(packetBytes) 0
attr interpolationmode none
attr recordingmode sum(packetBytes)
attr source packetDropReasonIsInterfaceDown(packetDropped)
attr title "packet drop: interface down, sum(packetBytes)"
scalar wirelessNetwork.host.wlan[0].mac packetDropNotAddressedToUs:count 74
attr interpolationmode none
attr recordingmode count
attr source packetDropReasonIsNotAddressedToUs(packetDropped)
attr title "packet drop: not addressed to us, count"
scalar wirelessNetwork.host.wlan[0].mac packetDropNotAddressedToUs:sum(packetBytes) 64774
attr interpolationmode none
attr recordingmode sum(packetBytes)
attr source packetDropReasonIsNotAddressedToUs(packetDropped)
attr title "packet drop: not addressed to us, sum(packetBytes)"
scalar wirelessNetwork.host.wlan[0].mac linkBroken:count 1
attr interpolationmode none
attr recordingmode count
attr source linkBroken
attr title "link break, count"
par wirelessNetwork.host.wlan[0].radio.antenna typename "\"inet.physicallayer.wireless.common.antenna.IsotropicAntenna\""
par wirelessNetwork.host.wlan[0].radio.antenna mobilityModule "\"^.^.^.mobility\""
par wirelessNetwork.host.wlan[0].radio.antenna numAntennas 1
par wirelessNetwork.host.wlan[0].radio.transmitter typename "\"inet.physicallayer.wireless.unitdisk.UnitDiskTransmitter\""
par wirelessNetwork.host.wlan[0].radio.transmitter preambleDuration 0s
attr unit s
par wirelessNetwork.host.wlan[0].radio.transmitter headerLength 96b
attr unit b
par wirelessNetwork.host.wlan[0].radio.transmitter bitrate 2e+06bps
attr unit bps
par wirelessNetwork.host.wlan[0].radio.transmitter communicationRange 150m
attr unit m
par wirelessNetwork.host.wlan[0].radio.transmitter interferenceRange 0m
attr unit m
par wirelessNetwork.host.wlan[0].radio.transmitter detectionRange 0m
attr unit m
par wirelessNetwork.host.wlan[0].radio.receiver typename "\"inet.physicallayer.wireless.unitdisk.UnitDiskReceiver\""
par wirelessNetwork.host.wlan[0].radio.receiver ignoreInterference true
par wirelessNetwork.host.wlan[0].radio typename "\"inet.physicallayer.wireless.unitdisk.UnitDiskRadio\""
par wirelessNetwork.host.wlan[0].radio radioMediumModule "\"radioMedium\""
par wirelessNetwork.host.wlan[0].radio energySourceModule "\"\""
par wirelessNetwork.host.wlan[0].radio initialRadioMode "\"off\""
attr enum off,sleep,receiver,transmitter,transceiver
par wirelessNetwork.host.wlan[0].radio switchingTimes "\"ms 0 0 0 0 0 0 0 0 0 0 0 0 0 0 0 0 0 0 0 0 0 0 0 0 0\""
par wirelessNetwork.host.wlan[0].radio sendRawBytes false
par wirelessNetwork.host.wlan[0].radio separateTransmissionParts false
par wirelessNetwork.host.wlan[0].radio separateReceptionParts false
par wirelessNetwork.host.wlan[0].radio displayCommunicationRange true
par wirelessNetwork.host.wlan[0].radio displayInterferenceRange false
statistic wirelessNetwork.host.wlan[0].radio minSnir:histogram
field count 0
field mean nan
field stddev nan
field min nan
field max nan
field sum 0
field sqrsum 0
attr recordingmode histogram
attr source minimumSnir(packetSentToUpper)
attr title "Min SNIR"
bin	-inf	0
bin	0	0
bin	1	0
statistic wirelessNetwork.host.wlan[0].radio packetErrorRate:histogram
field count 368
field mean 0.0027173913043478
field stddev 0.052128603514269
field min 0
field max 1
field sum 1
field sqrsum 1
attr recordingmode histogram
attr source packetErrorRate(packetSentToUpper)
attr title "Packet error rate"
bin	-inf	0
bin	-0.5	0
bin	-0.48	0
bin	-0.46	0
bin	-0.44	0
bin	-0.42	0
bin	-0.4	0
bin	-0.38	0
bin	-0.36	0
bin	-0.34	0
bin	-0.32	0
bin	-0.3	0
bin	-0.28	0
bin	-0.26	0
bin	-0.24	0
bin	-0.22	0
bin	-0.2	0
bin	-0.18	0
bin	-0.16	0
bin	-0.14	0
bin	-0.12	0
bin	-0.1	0
bin	-0.08	0
bin	-0.06	0
bin	-0.04	0
bin	-0.02	0
bin	0	367
bin	0.02	0
bin	0.04	0
bin	0.06	0
bin	0.08	0
bin	0.1	0
bin	0.12	0
bin	0.14	0
bin	0.16	0
bin	0.18	0
bin	0.2	0
bin	0.22	0
bin	0.24	0
bin	0.26	0
bin	0.28	0
bin	0.3	0
bin	0.32	0
bin	0.34	0
bin	0.36	0
bin	0.38	0
bin	0.4	0
bin	0.42	0
bin	0.44	0
bin	0.46	0
bin	0.48	0
bin	0.5	0
bin	0.52	0
bin	0.54	0
bin	0.56	0
bin	0.58	0
bin	0.6	0
bin	0.62	0
bin	0.64	0
bin	0.66	0
bin	0.68	0
bin	0.7	0
bin	0.72	0
bin	0.74	0
bin	0.76	0
bin	0.78	0
bin	0.8	0
bin	0.82	0
bin	0.84	0
bin	0.86	0
bin	0.88	0
bin	0.9	0
bin	0.92	0
bin	0.94	0
bin	0.96	0
bin	0.98	0
bin	1	1
bin	1.02	0
statistic wirelessNetwork.host.wlan[0].radio bitErrorRate:histogram
field count 368
field mean 0.0027173913043478
field stddev 0.052128603514269
field min 0
field max 1
field sum 1
field sqrsum 1
attr recordingmode histogram
attr source bitErrorRate(packetSentToUpper)
attr title "Bit error rate"
bin	-inf	0
bin	-0.5	0
bin	-0.48	0
bin	-0.46	0
bin	-0.44	0
bin	-0.42	0
bin	-0.4	0
bin	-0.38	0
bin	-0.36	0
bin	-0.34	0
bin	-0.32	0
bin	-0.3	0
bin	-0.28	0
bin	-0.26	0
bin	-0.24	0
bin	-0.22	0
bin	-0.2	0
bin	-0.18	0
bin	-0.16	0
bin	-0.14	0
bin	-0.12	0
bin	-0.1	0
bin	-0.08	0
bin	-0.06	0
bin	-0.04	0
bin	-0.02	0
bin	0	367
bin	0.02	0
bin	0.04	0
bin	0.06	0
bin	0.08	0
bin	0.1	0
bin	0.12	0
bin	0.14	0
bin	0.16	0
bin	0.18	0
bin	0.2	0
bin	0.22	0
bin	0.24	0
bin	0.26	0
bin	0.28	0
bin	0.3	0
bin	0.32	0
bin	0.34	0
bin	0.36	0
bin	0.38	0
bin	0.4	0
bin	0.42	0
bin	0.44	0
bin	0.46	0
bin	0.48	0
bin	0.5	0
bin	0.52	0
bin	0.54	0
bin	0.56	0
bin	0.58	0
bin	0.6	0
bin	0.62	0
bin	0.64	0
bin	0.66	0
bin	0.68	0
bin	0.7	0
bin	0.72	0
bin	0.74	0
bin	0.76	0
bin	0.78	0
bin	0.8	0
bin	0.82	0
bin	0.84	0
bin	0.86	0
bin	0.88	0
bin	0.9	0
bin	0.92	0
bin	0.94	0
bin	0.96	0
bin	0.98	0
bin	1	1
bin	1.02	0
statistic wirelessNetwork.host.wlan[0].radio symbolErrorRate:histogram
field count 368
field mean 0.0027173913043478
field stddev 0.052128603514269
field min 0
field max 1
field sum 1
field sqrsum 1
attr recordingmode histogram
attr source symbolErrorRate(packetSentToUpper)
attr title "Symbol error rate"
bin	-inf	0
bin	-0.5	0
bin	-0.48	0
bin	-0.46	0
bin	-0.44	0
bin	-0.42	0
bin	-0.4	0
bin	-0.38	0
bin	-0.36	0
bin	-0.34	0
bin	-0.32	0
bin	-0.3	0
bin	-0.28	0
bin	-0.26	0
bin	-0.24	0
bin	-0.22	0
bin	-0.2	0
bin	-0.18	0
bin	-0.16	0
bin	-0.14	0
bin	-0.12	0
bin	-0.1	0
bin	-0.08	0
bin	-0.06	0
bin	-0.04	0
bin	-0.02	0
bin	0	367
bin	0.02	0
bin	0.04	0
bin	0.06	0
bin	0.08	0
bin	0.1	0
bin	0.12	0
bin	0.14	0
bin	0.16	0
bin	0.18	0
bin	0.2	0
bin	0.22	0
bin	0.24	0
bin	0.26	0
bin	0.28	0
bin	0.3	0
bin	0.32	0
bin	0.34	0
bin	0.36	0
bin	0.38	0
bin	0.4	0
bin	0.42	0
bin	0.44	0
bin	0.46	0
bin	0.48	0
bin	0.5	0
bin	0.52	0
bin	0.54	0
bin	0.56	0
bin	0.58	0
bin	0.6	0
bin	0.62	0
bin	0.64	0
bin	0.66	0
bin	0.68	0
bin	0.7	0
bin	0.72	0
bin	0.74	0
bin	0.76	0
bin	0.78	0
bin	0.8	0
bin	0.82	0
bin	0.84	0
bin	0.86	0
bin	0.88	0
bin	0.9	0
bin	0.92	0
bin	0.94	0
bin	0.96	0
bin	0.98	0
bin	1	1
bin	1.02	0
scalar wirelessNetwork.host.wlan[0].radio transmissionState:count 237
attr interpolationmode sample-hold
attr recordingmode count
attr source transmissionStateChanged
attr title "Radio transmission state, count"
scalar wirelessNetwork.host.wlan[0].radio receptionState:count 737
attr interpolationmode sample-hold
attr recordingmode count
attr source receptionStateChanged
attr title "Radio reception state, count"
scalar wirelessNetwork.host.wlan[0].radio radioMode:count 3
attr interpolationmode sample-hold
attr recordingmode count
attr source radioModeChanged
attr title "Radio mode, count"
par wirelessNetwork.host.wlan[0] typename "\"inet.linklayer.acking.AckingWirelessInterface\""
par wirelessNetwork.host.wlan[0] displayStringTextFormat "\"%a (%i)\\n%m\""
par wirelessNetwork.host.wlan[0] recordPcap false
par wirelessNetwork.host.wlan[0] numPcapRecorders 0
par wirelessNetwork.host.wlan[0] interfaceTableModule "\"wirelessNetwork.host.interfaceTable\""
par wirelessNetwork.host.wlan[0] energySourceModule "\"\""
par wirelessNetwork.host.wlan[0] bitrate 2e+06bps
attr unit bps
scalar wirelessNetwork.host.wlan[0] packetDropInterfaceDown:count 0
attr interpolationmode none
attr recordingmode count
attr source packetDropReasonIsInterfaceDown(packetDropped)
attr title "packet drops: interface down, count"
scalar wirelessNetwork.host.wlan[0] packetDropInterfaceDown:sum(packetBytes) 0
attr interpolationmode none
attr recordingmode sum(packetBytes)
attr source packetDropReasonIsInterfaceDown(packetDropped)
attr title "packet drops: interface down, sum(packetBytes)"
scalar wirelessNetwork.host.wlan[0] packetDropNoCarrier:count 0
attr interpolationmode none
attr recordingmode count
attr source packetDropReasonIsNoCarrier(packetDropped)
attr title "packet drops: no carrier, count"
scalar wirelessNetwork.host.wlan[0] packetDropNoCarrier:sum(packetBytes) 0
attr interpolationmode none
attr recordingmode sum(packetBytes)
attr source packetDropReasonIsNoCarrier(packetDropped)
attr title "packet drops: no carrier, sum(packetBytes)"
par wirelessNetwork.host.ipv4.transportIn.channel typename "\"ned.IdealChannel\""
par wirelessNetwork.host.ipv4.up.out[0].channel typename "\"ned.IdealChannel\""
[...]
par wirelessNetwork.host20.ipv4.igmp interfaceTableModule "\"wirelessNetwork.host20.interfaceTable\""
par wirelessNetwork.host20.ipv4.igmp routingTableModule "\"wirelessNetwork.host20.ipv4.routingTable\""
par wirelessNetwork.host20.ipv4.igmp crcMode "\"declared\""
attr enum declared,computed
par wirelessNetwork.host20.ipv4.igmp enabled true
par wirelessNetwork.host20.ipv4.igmp robustnessVariable 2
par wirelessNetwork.host20.ipv4.igmp queryInterval 125s
attr unit s
par wirelessNetwork.host20.ipv4.igmp queryResponseInterval 10s
attr unit s
par wirelessNetwork.host20.ipv4.igmp groupMembershipInterval 260s
attr unit s
par wirelessNetwork.host20.ipv4.igmp otherQuerierPresentInterval 255s
attr unit s
par wirelessNetwork.host20.ipv4.igmp startupQueryInterval 31.25s
attr unit s
par wirelessNetwork.host20.ipv4.igmp startupQueryCount 2
par wirelessNetwork.host20.ipv4.igmp lastMemberQueryInterval 1s
attr unit s
par wirelessNetwork.host20.ipv4.igmp lastMemberQueryCount 2
par wirelessNetwork.host20.ipv4.igmp unsolicitedReportInterval 10s
attr unit s
par wirelessNetwork.host20.ipv4.icmp typename "\"inet.networklayer.ipv4.Icmp\""
par wirelessNetwork.host20.ipv4.icmp interfaceTableModule "\"wirelessNetwork.host20.interfaceTable\""
par wirelessNetwork.host20.ipv4.icmp routingTableModule "\"wirelessNetwork.host20.ipv4.routingTable\""
par wirelessNetwork.host20.ipv4.icmp crcMode "\"declared\""
attr enum declared,computed
attr mutable ""
par wirelessNetwork.host20.ipv4.icmp quoteLength 8B
attr mutable ""
attr unit B
par wirelessNetwork.host20.ipv4.mp typename "\"inet.common.MessageDispatcher\""
par wirelessNetwork.host20.ipv4.mp displayStringTextFormat "\"processed %p pk (%l)\""
par wirelessNetwork.host20.ipv4.mp forwardServiceRegistration true
par wirelessNetwork.host20.ipv4.mp forwardProtocolRegistration true
par wirelessNetwork.host20.ipv4.ip typename "\"inet.networklayer.ipv4.Ipv4\""
par wirelessNetwork.host20.ipv4.ip interfaceTableModule "\"wirelessNetwork.host20.interfaceTable\""
par wirelessNetwork.host20.ipv4.ip routingTableModule "\"wirelessNetwork.host20.ipv4.routingTable\""
par wirelessNetwork.host20.ipv4.ip arpModule "\"wirelessNetwork.host20.ipv4.arp\""
par wirelessNetwork.host20.ipv4.ip icmpModule "\"wirelessNetwork.host20.ipv4.icmp\""
par wirelessNetwork.host20.ipv4.ip crcMode "\"declared\""
attr enum declared,computed
par wirelessNetwork.host20.ipv4.ip timeToLive 32
par wirelessNetwork.host20.ipv4.ip multicastTimeToLive 32
par wirelessNetwork.host20.ipv4.ip fragmentTimeout 60s
attr unit s
par wirelessNetwork.host20.ipv4.ip limitedBroadcast false
par wirelessNetwork.host20.ipv4.ip directBroadcastInterfaces "\"\""
scalar wirelessNetwork.host20.ipv4.ip packetDropAddressResolutionFailed:count 0
attr interpolationmode none
attr recordingmode count
attr source packetDropReasonIsAddressResolutionFailed(packetDropped)
attr title "packet drop: address resolution failed, count"
scalar wirelessNetwork.host20.ipv4.ip packetDropAddressResolutionFailed:sum(packetBytes) 0
attr interpolationmode none
attr recordingmode sum(packetBytes)
attr source packetDropReasonIsAddressResolutionFailed(packetDropped)
attr title "packet drop: address resolution failed, sum(packetBytes)"
scalar wirelessNetwork.host20.ipv4.ip packetDropHopLimitReached:count 0
attr interpolationmode none
attr recordingmode count
attr source packetDropReasonIsHopLimitReached(packetDropped)
attr title "packet drop: hop limit reached, count"
scalar wirelessNetwork.host20.ipv4.ip packetDropHopLimitReached:sum(packetBytes) 0
attr interpolationmode none
attr recordingmode sum(packetBytes)
attr source packetDropReasonIsHopLimitReached(packetDropped)
attr title "packet drop: hop limit reached, sum(packetBytes)"
scalar wirelessNetwork.host20.ipv4.ip packetDropForwardingDisabled:count 0
attr interpolationmode none
attr recordingmode count
attr source packetDropReasonIsForwardingDisabled(packetDropped)
attr title "packet drop: forwarding disabled, count"
scalar wirelessNetwork.host20.ipv4.ip packetDropForwardingDisabled:sum(packetBytes) 0
attr interpolationmode none
attr recordingmode sum(packetBytes)
attr source packetDropReasonIsForwardingDisabled(packetDropped)
attr title "packet drop: forwarding disabled, sum(packetBytes)"
scalar wirelessNetwork.host20.ipv4.ip packetDropNoInterfaceFound:count 0
attr interpolationmode none
attr recordingmode count
attr source packetDropReasonIsNoInterfaceFound(packetDropped)
attr title "packet drop: no interface found, count"
scalar wirelessNetwork.host20.ipv4.ip packetDropNoInterfaceFound:sum(packetBytes) 0
attr interpolationmode none
attr recordingmode sum(packetBytes)
attr source packetDropReasonIsNoInterfaceFound(packetDropped)
attr title "packet drop: no interface found, sum(packetBytes)"
scalar wirelessNetwork.host20.ipv4.ip packetDropNoRouteFound:count 0
attr interpolationmode none
attr recordingmode count
attr source packetDropReasonIsNoRouteFound(packetDropped)
attr title "packet drop: no route found, count"
scalar wirelessNetwork.host20.ipv4.ip packetDropNoRouteFound:sum(packetBytes) 0
attr interpolationmode none
attr recordingmode sum(packetBytes)
attr source packetDropReasonIsNoRouteFound(packetDropped)
attr title "packet drop: no route found, sum(packetBytes)"
scalar wirelessNetwork.host20.ipv4.ip packetDropUndefined:count 0
attr interpolationmode none
attr recordingmode count
attr source packetDropReasonIsUndefined(packetDropped)
attr title "packet drop: undefined, count"
scalar wirelessNetwork.host20.ipv4.ip packetDropUndefined:sum(packetBytes) 0
attr interpolationmode none
attr recordingmode sum(packetBytes)
attr source packetDropReasonIsUndefined(packetDropped)
attr title "packet drop: undefined, sum(packetBytes)"
par wirelessNetwork.host20.ipv4.arp typename "\"inet.networklayer.arp.ipv4.GlobalArp\""
par wirelessNetwork.host20.ipv4.arp interfaceTableModule "\"wirelessNetwork.host20.interfaceTable\""
par wirelessNetwork.host20.ipv4.arp addressType "\"ipv4\""
attr enum ipv4,ipv6,mac,moduleid,modulepath
par wirelessNetwork.host20.ipv4.lp typename "\"inet.common.MessageDispatcher\""
par wirelessNetwork.host20.ipv4.lp displayStringTextFormat "\"processed %p pk (%l)\""
par wirelessNetwork.host20.ipv4.lp forwardServiceRegistration true
par wirelessNetwork.host20.ipv4.lp forwardProtocolRegistration true
par wirelessNetwork.host20.ipv4 typename "\"inet.networklayer.ipv4.Ipv4NetworkLayer\""
par wirelessNetwork.host20.ipv4 forwarding true
par wirelessNetwork.host20.ipv4 multicastForwarding false
par wirelessNetwork.host20.ipv4 interfaceTableModule "\"wirelessNetwork.host20.interfaceTable\""
par wirelessNetwork.host20.ipv4 displayStringTextFormat "\"%i\""
par wirelessNetwork.host20.nl typename "\"inet.common.MessageDispatcher\""
par wirelessNetwork.host20.nl displayStringTextFormat "\"processed %p pk (%l)\""
par wirelessNetwork.host20.nl forwardServiceRegistration true
par wirelessNetwork.host20.nl forwardProtocolRegistration true
par wirelessNetwork.host20.udp typename "\"inet.transportlayer.udp.Udp\""
par wirelessNetwork.host20.udp interfaceTableModule "\"wirelessNetwork.host20.interfaceTable\""
par wirelessNetwork.host20.udp icmpModule "\"^.ipv4.icmp\""
par wirelessNetwork.host20.udp icmpv6Module "\"^.ipv6.icmpv6\""
par wirelessNetwork.host20.udp crcMode "\"declared\""
attr enum disabled,declared,computed
par wirelessNetwork.host20.udp defaultMulticastLoop true
scalar wirelessNetwork.host20.udp packetReceived:count 43
attr interpolationmode none
attr recordingmode count
attr source packetReceived
attr title "packets received, count"
scalar wirelessNetwork.host20.udp packetReceived:sum(packetBytes) 30656
attr interpolationmode none
attr recordingmode sum(packetBytes)
attr source packetReceived
attr title "packets received, sum(packetBytes)"
scalar wirelessNetwork.host20.udp packetSent:count 13
attr interpolationmode none
attr recordingmode count
attr source packetSent
attr title "packets sent, count"
scalar wirelessNetwork.host20.udp packetSent:sum(packetBytes) 392
attr interpolationmode none
attr recordingmode sum(packetBytes)
attr source packetSent
attr title "packets sent, sum(packetBytes)"
scalar wirelessNetwork.host20.udp passedUpPk:count 13
attr interpolationmode none
attr recordingmode count
attr source packetSentToUpper
attr title "packets passed up, count"
scalar wirelessNetwork.host20.udp droppedPkWrongPort:count 30
attr interpolationmode none
attr recordingmode count
attr source packetDropReasonIsNoPortFound(packetDropped)
attr title "packets dropped (wrong port), count"
scalar wirelessNetwork.host20.udp droppedPkBadChecksum:count 0
attr interpolationmode none
attr recordingmode count
attr source packetDropReasonIsIncorrectlyReceived(packetDropped)
attr title "packets dropped (checksum error), count"
par wirelessNetwork.host20.tcp typename "\"inet.transportlayer.tcp.Tcp\""
par wirelessNetwork.host20.tcp crcMode "\"declared\""
attr enum declared,computed
par wirelessNetwork.host20.tcp advertisedWindow 7504
par wirelessNetwork.host20.tcp delayedAcksEnabled false
par wirelessNetwork.host20.tcp nagleEnabled true
par wirelessNetwork.host20.tcp limitedTransmitEnabled false
par wirelessNetwork.host20.tcp increasedIWEnabled false
par wirelessNetwork.host20.tcp sackSupport false
par wirelessNetwork.host20.tcp windowScalingSupport false
par wirelessNetwork.host20.tcp windowScalingFactor -1
par wirelessNetwork.host20.tcp timestampSupport false
par wirelessNetwork.host20.tcp mss 536
par wirelessNetwork.host20.tcp msl 120s
attr unit s
par wirelessNetwork.host20.tcp tcpAlgorithmClass "\"TcpReno\""
attr enum TcpVegas,TcpWestwood,TcpNewReno,TcpReno,TcpTahoe,TcpNoCongestionControl
par wirelessNetwork.host20.tcp useDataNotification false
par wirelessNetwork.host20.tcp dupthresh 3
par wirelessNetwork.host20.tcp initialSsthresh 4294967295
par wirelessNetwork.host20.tcp stopOperationExtraTime 0s
attr unit s
par wirelessNetwork.host20.tcp stopOperationTimeout 2s
attr unit s
par wirelessNetwork.host20.tcp ecnWillingness false
par wirelessNetwork.host20.tcp dctcpGamma 0.0625
par wirelessNetwork.host20.tn typename "\"inet.common.MessageDispatcher\""
par wirelessNetwork.host20.tn displayStringTextFormat "\"processed %p pk (%l)\""
par wirelessNetwork.host20.tn forwardServiceRegistration true
par wirelessNetwork.host20.tn forwardProtocolRegistration true
par wirelessNetwork.host20.app[0].sink typename "\"inet.queueing.sink.PassivePacketSink\""
par wirelessNetwork.host20.app[0].sink displayStringTextFormat "\"received %p pk (%l)\""
par wirelessNetwork.host20.app[0].sink clockModule "\"\""
par wirelessNetwork.host20.app[0].sink initialConsumptionOffset 0s
attr unit s
par wirelessNetwork.host20.app[0].sink consumptionInterval 0s
attr unit s
par wirelessNetwork.host20.app[0].sink scheduleForAbsoluteTime true
scalar wirelessNetwork.host20.app[0].sink packets:count 0
attr recordingmode count
attr source packetPushed
attr title "packets, count"
attr unit pk
scalar wirelessNetwork.host20.app[0].sink packetLengths:sum 0
attr interpolationmode none
attr recordingmode sum
attr source packetLength(packetPushed)
attr title "packet lengths, sum"
attr unit b
statistic wirelessNetwork.host20.app[0].sink packetLengths:histogram
field count 0
field mean nan
field stddev nan
field min nan
field max nan
field sum 0
field sqrsum 0
attr interpolationmode none
attr recordingmode histogram
attr source packetLength(packetPushed)
attr title "packet lengths"
attr unit b
bin	-inf	0
bin	0	0
bin	1	0
statistic wirelessNetwork.host20.app[0].sink meanBitLifeTimePerPacket:histogram
field count 0
field mean nan
field stddev nan
field min nan
field max nan
field sum 0
field sqrsum 0
attr interpolationmode none
attr recordingmode histogram
attr source weightedMeanPerGroup(groupRegionsPerPacket(lifeTimePerRegion(packetPushed)))
attr title "mean bit life time per packet"
attr unit s
bin	-inf	0
bin	0	0
bin	1	0
statistic wirelessNetwork.host20.app[0].sink packetJitter:histogram
field count 0
field mean nan
field stddev nan
field min nan
field max nan
field sum 0
field sqrsum 0
attr interpolationmode none
attr recordingmode histogram
attr source jitter(weightedMeanPerGroup(groupRegionsPerPacket(lifeTimePerRegion(packetPushed))))
attr title "packet jitter"
attr unit s
bin	-inf	0
bin	0	0
bin	1	0
statistic wirelessNetwork.host20.app[0].sink packetDelayDifferenceToMean:histogram
field count 0
field mean nan
field stddev nan
field min nan
field max nan
field sum 0
field sqrsum 0
attr interpolationmode none
attr recordingmode histogram
attr source differenceToMean(weightedMeanPerGroup(groupRegionsPerPacket(lifeTimePerRegion(packetPushed))))
attr title "packet delay difference to mean"
attr unit s
bin	-inf	0
bin	0	0
bin	1	0
statistic wirelessNetwork.host20.app[0].sink packetDelayVariation:histogram
field count 0
field mean nan
field stddev nan
field min nan
field max nan
field sum 0
field sqrsum 0
attr recordingmode histogram
attr source stddev(weightedMeanPerGroup(groupRegionsPerPacket(lifeTimePerRegion(packetPushed))))
attr title "packet delay variation"
attr unit s
bin	-inf	0
bin	0	0
bin	1	0
scalar wirelessNetwork.host20.app[0].sink droppedPackets:count 0
attr recordingmode count
attr source packetDropped
attr title "dropped packets, count"
attr unit pk
scalar wirelessNetwork.host20.app[0].sink droppedPacketLengths:sum 0
attr interpolationmode none
attr recordingmode sum
attr source packetLength(packetDropped)
attr title "dropped packet lengths, sum"
attr unit b
statistic wirelessNetwork.host20.app[0].sink droppedPacketLengths:histogram
field count 0
field mean nan
field stddev nan
field min nan
field max nan
field sum 0
field sqrsum 0
attr interpolationmode none
attr recordingmode histogram
attr source packetLength(packetDropped)
attr title "dropped packet lengths"
attr unit b
bin	-inf	0
bin	0	0
bin	1	0
par wirelessNetwork.host20.app[0].io typename "\"inet.applications.udpapp.UdpSocketIo\""
par wirelessNetwork.host20.app[0].io interfaceTableModule "\"wirelessNetwork.host20.app[0].interfaceTable\""
par wirelessNetwork.host20.app[0].io localAddress "\"\""
par wirelessNetwork.host20.app[0].io localPort -1
par wirelessNetwork.host20.app[0].io destAddress "\"\""
par wirelessNetwork.host20.app[0].io destPort -1
par wirelessNetwork.host20.app[0].io timeToLive -1
par wirelessNetwork.host20.app[0].io dontFragment false
par wirelessNetwork.host20.app[0].io dscp -1
par wirelessNetwork.host20.app[0].io tos -1
par wirelessNetwork.host20.app[0].io multicastInterface "\"\""
par wirelessNetwork.host20.app[0].io multicastAddresses []
par wirelessNetwork.host20.app[0].io receiveBroadcast false
par wirelessNetwork.host20.app[0].io joinLocalMulticastGroups false
par wirelessNetwork.host20.app[0].io stopOperationExtraTime -1s
attr unit s
par wirelessNetwork.host20.app[0].io stopOperationTimeout 2s
attr unit s
scalar wirelessNetwork.host20.app[0].io "packets sent" 0
scalar wirelessNetwork.host20.app[0].io "packets received" 0
scalar wirelessNetwork.host20.app[0].io packetReceived:count 0
attr interpolationmode none
attr recordingmode count
attr source packetReceived
attr title "packets received, count"
scalar wirelessNetwork.host20.app[0].io packetReceived:sum(packetBytes) 0
attr interpolationmode none
attr recordingmode sum(packetBytes)
attr source packetReceived
attr title "packets received, sum(packetBytes)"
scalar wirelessNetwork.host20.app[0].io packetSent:count 0
attr interpolationmode none
attr recordingmode count
attr source packetSent
attr title "packets sent, count"
scalar wirelessNetwork.host20.app[0].io packetSent:sum(packetBytes) 0
attr interpolationmode none
attr recordingmode sum(packetBytes)
attr source packetSent
attr title "packets sent, sum(packetBytes)"
par wirelessNetwork.host20.app[0] typename "\"inet.applications.udpapp.UdpSinkApp\""
par wirelessNetwork.host20.app[0] interfaceTableModule "\"wirelessNetwork.host20.interfaceTable\""
par wirelessNetwork.host20.at typename "\"inet.common.MessageDispatcher\""
par wirelessNetwork.host20.at displayStringTextFormat "\"processed %p pk (%l)\""
par wirelessNetwork.host20.at forwardServiceRegistration true
par wirelessNetwork.host20.at forwardProtocolRegistration true
par wirelessNetwork.host20.aodv typename "\"inet.routing.aodv.Aodv\""
par wirelessNetwork.host20.aodv routingTableModule "\"^.ipv4.routingTable\""
par wirelessNetwork.host20.aodv interfaceTableModule "\"wirelessNetwork.host20.interfaceTable\""
par wirelessNetwork.host20.aodv networkProtocolModule "\"^.ipv4.ip\""
par wirelessNetwork.host20.aodv askGratuitousRREP false
par wirelessNetwork.host20.aodv useHelloMessages false
par wirelessNetwork.host20.aodv useLocalRepair false
par wirelessNetwork.host20.aodv destinationOnlyFlag false
par wirelessNetwork.host20.aodv udpPort 654
par wirelessNetwork.host20.aodv interface "\"wlan0\""
par wirelessNetwork.host20.aodv maxPeriodicJitter 0.25s
attr unit s
par wirelessNetwork.host20.aodv periodicJitter "uniform(0s, maxPeriodicJitter)"
attr unit s
par wirelessNetwork.host20.aodv jitter "uniform(0ms, maxJitter)"
attr unit s
par wirelessNetwork.host20.aodv helloInterval 1s
attr unit s
par wirelessNetwork.host20.aodv allowedHelloLoss 2
par wirelessNetwork.host20.aodv activeRouteTimeout 3s
attr unit s
par wirelessNetwork.host20.aodv netDiameter 35
par wirelessNetwork.host20.aodv nodeTraversalTime 0.04s
attr unit s
par wirelessNetwork.host20.aodv rerrRatelimit 10
par wirelessNetwork.host20.aodv rreqRetries 2
par wirelessNetwork.host20.aodv rreqRatelimit 10
par wirelessNetwork.host20.aodv timeoutBuffer 2
par wirelessNetwork.host20.aodv ttlStart 2
par wirelessNetwork.host20.aodv ttlIncrement 2
par wirelessNetwork.host20.aodv ttlThreshold 7
par wirelessNetwork.host20.aodv localAddTTL 2
par wirelessNetwork.host20.aodv myRouteTimeout 6s
attr unit s
par wirelessNetwork.host20.aodv deletePeriod 15s
attr unit s
par wirelessNetwork.host20.aodv blacklistTimeout 5.6s
attr unit s
par wirelessNetwork.host20.aodv netTraversalTime 2.8s
attr unit s
par wirelessNetwork.host20.aodv nextHopWait 0.05s
attr unit s
par wirelessNetwork.host20.aodv pathDiscoveryTime 5.6s
attr unit s
par wirelessNetwork.host20.aodv outputInterface "\"wlan0\""
par wirelessNetwork.host20.aodv interfaces "\"*\""
par wirelessNetwork.host20.aodv beaconInterval 3s
attr unit s
par wirelessNetwork.host20.aodv maxJitter 1.5s
attr unit s
par wirelessNetwork.host20.aodv neighborValidityInterval 13.5s
attr unit s
par wirelessNetwork.host20.aodv positionByteLength 8B
attr unit B
par wirelessNetwork.host20.aodv displayBubbles false
statistic wirelessNetwork.host20.aodv iNumRREQ:stats
field count 0
field mean nan
field stddev nan
field min nan
field max nan
field sum 0
field sqrsum 0
attr interpolationmode none
attr recordingmode stats
attr source RREQ_traffic
attr title "RREQ message count"
par wirelessNetwork.host20 typename "\"inet.node.aodv.AodvRouter\""
par wirelessNetwork.host20 hasStatus false
par wirelessNetwork.host20 osgModel "\"\""
par wirelessNetwork.host20 osgModelColor "\"\""
par wirelessNetwork.host20 canvasImage "\"\""
par wirelessNetwork.host20 canvasImageColor "\"\""
par wirelessNetwork.host20 recordPcap false
par wirelessNetwork.host20 numPcapRecorders 0
par wirelessNetwork.host20 numLoInterfaces 1
par wirelessNetwork.host20 numWlanInterfaces 1
par wirelessNetwork.host20 numEthInterfaces 0
par wirelessNetwork.host20 numPppInterfaces 0
par wirelessNetwork.host20 numTunInterfaces 0
par wirelessNetwork.host20 numVirtInterfaces 0
par wirelessNetwork.host20 fcsMode "\"declared\""
attr enum declared,computed
par wirelessNetwork.host20 hasIpv4 true
par wirelessNetwork.host20 hasIpv6 false
par wirelessNetwork.host20 hasGn false
par wirelessNetwork.host20 forwarding true
par wirelessNetwork.host20 multicastForwarding false
par wirelessNetwork.host20 hasUdp true
par wirelessNetwork.host20 hasTcp true
par wirelessNetwork.host20 hasSctp false
par wirelessNetwork.host20 numApps 1
par wirelessNetwork typename "\"tacsim.simulations.TacSim.wirelessNetwork\""

