version 3
run General-0-20240606-13:05:42-19480
attr configname General
attr datetime 20240606-13:05:42
attr datetimef 20240606-130542
attr experiment General
attr inifile Wireless24Nodes.ini
attr iterationvars ""
attr iterationvarsd ""
attr iterationvarsf ""
attr measurement ""
attr network wireless24Nodes
attr processid 19480
attr repetition 0
attr replication #0
attr resultdir results
attr runnumber 0
attr seedset 0
config image-path ../../../inet4.5/images
config network wireless24Nodes
config sim-time-limit 60s
config *.host*.ipv4.arp.typename GlobalArp
config *.host{1..24}.numApps 1
config *.host{1..24}.app[0].typename UdpBasicApp
config *.host{1..24}.app[0].destAddresses "\"host1 host2 host3 host4 host5 host6 host7 host8 host9 host10 host11 host12 host13 host14 host15 host16 host17 host18 host19 host20 host21 host22 host23 host24\""
config *.host{1..24}.app[0].destPort 5000
config *.host{1..24}.app[0].messageLength 1000B
config *.host{1..24}.app[0].sendInterval exponential(10ms)
config *.host{1..24}.app[0].packetName "\"UDPData\""
config *.host{1..24}.app[0].startTime 5s
config **.wlan[*].typename AckingWirelessInterface
config **.wlan[*].bitrate 1Mbps
config **.wlan[*].mac.headerLength 23B
config **.wlan[*].radio.typename UnitDiskRadio
config **.wlan[*].radio.transmitter.headerLength 96b
config **.wlan[*].radio.transmitter.interferenceRange 0m
config **.wlan[*].radio.transmitter.detectionRange 0m
config **.wlan[*].radio.receiver.ignoreInterference true
config **.wlan[*].radio.transmitter.communicationRange 2000m
config *.host*.wlan[0].radio.displayCommunicationRange true
config **.host*.Control_packets.result-recording-modes +vector,+histogram
config **.host*.Data_packets_Sent.result-recording-modes +vector,+histogram
config **.host*.UDP_packets_Rcvd.result-recording-modes +vector,+histogram
config **.constraintAreaMinX 0m
config **.constraintAreaMaxX 10000m
config **.constraintAreaMinY 0m
config **.constraintAreaMaxY 10000m
config **.constraintAreaMinZ 0m
config **.constraintAreaMaxZ 0m
config **.aodv.rreqRetries 0
config **.aodv.ttlStart 24
config **.aodv.useHelloMessages true
config **.aodv.helloInterval 3s
config **.aodv.activeRouteTimeout 7s

par wireless24Nodes.visualizer.sceneVisualizer typename "\"inet.visualizer.canvas.scene.SceneCanvasVisualizer\""
par wireless24Nodes.visualizer.sceneVisualizer visualizationTargetModule "\"^.^\""
par wireless24Nodes.visualizer.sceneVisualizer visualizationSubjectModule "\"^.^\""
par wireless24Nodes.visualizer.sceneVisualizer tags "\"\""
par wireless24Nodes.visualizer.sceneVisualizer physicalEnvironmentModule "\"physicalEnvironment\""
par wireless24Nodes.visualizer.sceneVisualizer networkNodeVisualizerModule "\"^.networkNodeVisualizer\""
par wireless24Nodes.visualizer.sceneVisualizer axisLength "nan m"
attr mutable ""
attr unit m
par wireless24Nodes.visualizer.sceneVisualizer animationSpeed 0
par wireless24Nodes.visualizer.sceneVisualizer sceneMinX "nan m"
attr unit m
par wireless24Nodes.visualizer.sceneVisualizer sceneMinY "nan m"
attr unit m
par wireless24Nodes.visualizer.sceneVisualizer sceneMinZ "nan m"
attr unit m
par wireless24Nodes.visualizer.sceneVisualizer sceneMaxX "nan m"
attr unit m
par wireless24Nodes.visualizer.sceneVisualizer sceneMaxY "nan m"
attr unit m
par wireless24Nodes.visualizer.sceneVisualizer sceneMaxZ "nan m"
attr unit m
par wireless24Nodes.visualizer.sceneVisualizer zIndex 0
par wireless24Nodes.visualizer.sceneVisualizer viewAngle "\"x right y down z out\""
attr mutable ""
par wireless24Nodes.visualizer.sceneVisualizer viewScale "\"1 1\""
attr mutable ""
par wireless24Nodes.visualizer.sceneVisualizer viewTranslation "\"0 0\""
attr mutable ""
par wireless24Nodes.visualizer.sceneVisualizer descriptionFigure "\"\""
par wireless24Nodes.visualizer.physicalEnvironmentVisualizer typename "\"inet.visualizer.canvas.environment.PhysicalEnvironmentCanvasVisualizer\""
par wireless24Nodes.visualizer.physicalEnvironmentVisualizer visualizationTargetModule "\"^.^\""
par wireless24Nodes.visualizer.physicalEnvironmentVisualizer visualizationSubjectModule "\"^.^\""
par wireless24Nodes.visualizer.physicalEnvironmentVisualizer tags "\"\""
par wireless24Nodes.visualizer.physicalEnvironmentVisualizer physicalEnvironmentModule "\"physicalEnvironment\""
par wireless24Nodes.visualizer.physicalEnvironmentVisualizer displayObjects true
par wireless24Nodes.visualizer.physicalEnvironmentVisualizer zIndex 0
par wireless24Nodes.visualizer.networkNodeVisualizer typename "\"inet.visualizer.canvas.scene.NetworkNodeCanvasVisualizer\""
par wireless24Nodes.visualizer.networkNodeVisualizer visualizationTargetModule "\"^.^\""
par wireless24Nodes.visualizer.networkNodeVisualizer visualizationSubjectModule "\"^.^\""
par wireless24Nodes.visualizer.networkNodeVisualizer tags "\"\""
par wireless24Nodes.visualizer.networkNodeVisualizer nodeFilter "\"*\""
attr mutable ""
par wireless24Nodes.visualizer.networkNodeVisualizer annotationSpacing 4
par wireless24Nodes.visualizer.networkNodeVisualizer placementPenalty 10
par wireless24Nodes.visualizer.networkNodeVisualizer zIndex 0
par wireless24Nodes.visualizer.networkConnectionVisualizer typename "\"inet.visualizer.canvas.scene.NetworkConnectionCanvasVisualizer\""
par wireless24Nodes.visualizer.networkConnectionVisualizer visualizationTargetModule "\"^.^\""
par wireless24Nodes.visualizer.networkConnectionVisualizer visualizationSubjectModule "\"^.^\""
par wireless24Nodes.visualizer.networkConnectionVisualizer tags "\"\""
par wireless24Nodes.visualizer.networkConnectionVisualizer displayNetworkConnections true
par wireless24Nodes.visualizer.networkConnectionVisualizer nodeFilter "\"\""
attr mutable ""
par wireless24Nodes.visualizer.networkConnectionVisualizer lineColor "\"black\""
par wireless24Nodes.visualizer.networkConnectionVisualizer lineStyle "\"solid\""
par wireless24Nodes.visualizer.networkConnectionVisualizer lineWidth 1
par wireless24Nodes.visualizer.networkConnectionVisualizer zIndex 0
par wireless24Nodes.visualizer.mobilityVisualizer typename "\"inet.visualizer.canvas.mobility.MobilityCanvasVisualizer\""
par wireless24Nodes.visualizer.mobilityVisualizer visualizationTargetModule "\"^.^\""
par wireless24Nodes.visualizer.mobilityVisualizer visualizationSubjectModule "\"^.^\""
par wireless24Nodes.visualizer.mobilityVisualizer tags "\"\""
par wireless24Nodes.visualizer.mobilityVisualizer networkNodeVisualizerModule "\"^.networkNodeVisualizer\""
par wireless24Nodes.visualizer.mobilityVisualizer displayMobility true
par wireless24Nodes.visualizer.mobilityVisualizer animationSpeed 0
par wireless24Nodes.visualizer.mobilityVisualizer moduleFilter "\"**.mobility\""
attr mutable ""
par wireless24Nodes.visualizer.mobilityVisualizer displayPositions false
par wireless24Nodes.visualizer.mobilityVisualizer positionCircleRadius 4
par wireless24Nodes.visualizer.mobilityVisualizer positionCircleLineWidth 1
par wireless24Nodes.visualizer.mobilityVisualizer positionCircleLineColor "\"dark\""
attr enum light,dark
par wireless24Nodes.visualizer.mobilityVisualizer positionCircleFillColor "\"dark\""
attr enum light,dark
par wireless24Nodes.visualizer.mobilityVisualizer displayOrientations false
par wireless24Nodes.visualizer.mobilityVisualizer orientationPieRadius 32
par wireless24Nodes.visualizer.mobilityVisualizer orientationPieSize 0.2
par wireless24Nodes.visualizer.mobilityVisualizer orientationPieOpacity 0.25
par wireless24Nodes.visualizer.mobilityVisualizer orientationLineColor "\"black\""
par wireless24Nodes.visualizer.mobilityVisualizer orientationLineStyle "\"solid\""
par wireless24Nodes.visualizer.mobilityVisualizer orientationLineWidth 1
par wireless24Nodes.visualizer.mobilityVisualizer orientationFillColor "\"blue\""
par wireless24Nodes.visualizer.mobilityVisualizer displayVelocities false
par wireless24Nodes.visualizer.mobilityVisualizer velocityArrowScale 1
par wireless24Nodes.visualizer.mobilityVisualizer velocityLineColor "\"black\""
par wireless24Nodes.visualizer.mobilityVisualizer velocityLineStyle "\"solid\""
par wireless24Nodes.visualizer.mobilityVisualizer velocityLineWidth 1
par wireless24Nodes.visualizer.mobilityVisualizer displayMovementTrails false
par wireless24Nodes.visualizer.mobilityVisualizer movementTrailLineColor "\"dark\""
attr enum light,dark
par wireless24Nodes.visualizer.mobilityVisualizer movementTrailLineStyle "\"solid\""
par wireless24Nodes.visualizer.mobilityVisualizer movementTrailLineWidth 1
par wireless24Nodes.visualizer.mobilityVisualizer trailLength 100
par wireless24Nodes.visualizer.mobilityVisualizer zIndex 0
par wireless24Nodes.visualizer.statisticVisualizer typename "\"inet.visualizer.canvas.common.StatisticCanvasVisualizer\""
par wireless24Nodes.visualizer.statisticVisualizer visualizationTargetModule "\"^.^\""
par wireless24Nodes.visualizer.statisticVisualizer visualizationSubjectModule "\"^.^\""
par wireless24Nodes.visualizer.statisticVisualizer tags "\"\""
par wireless24Nodes.visualizer.statisticVisualizer networkNodeVisualizerModule "\"^.networkNodeVisualizer\""
par wireless24Nodes.visualizer.statisticVisualizer displayStatistics true
par wireless24Nodes.visualizer.statisticVisualizer signalName "\"\""
par wireless24Nodes.visualizer.statisticVisualizer statisticName "\"\""
par wireless24Nodes.visualizer.statisticVisualizer statisticUnit "\"\""
par wireless24Nodes.visualizer.statisticVisualizer statisticExpression "\"\""
par wireless24Nodes.visualizer.statisticVisualizer sourceFilter "\"**\""
attr mutable ""
par wireless24Nodes.visualizer.statisticVisualizer format "\"%n: %v %u\""
attr mutable ""
par wireless24Nodes.visualizer.statisticVisualizer unit "\"\""
par wireless24Nodes.visualizer.statisticVisualizer font "\"<default>\""
par wireless24Nodes.visualizer.statisticVisualizer textColor "\"black\""
par wireless24Nodes.visualizer.statisticVisualizer backgroundColor "\"white\""
par wireless24Nodes.visualizer.statisticVisualizer opacity 1
par wireless24Nodes.visualizer.statisticVisualizer placementHint "\"top\""
par wireless24Nodes.visualizer.statisticVisualizer placementPriority 0
par wireless24Nodes.visualizer.statisticVisualizer zIndex 10
par wireless24Nodes.visualizer.statisticVisualizer propertyName "\"\""
par wireless24Nodes.visualizer.statisticVisualizer propertyIndex "\"\""
par wireless24Nodes.visualizer.infoVisualizer typename "\"inet.visualizer.canvas.common.InfoCanvasVisualizer\""
par wireless24Nodes.visualizer.infoVisualizer visualizationTargetModule "\"^.^\""
par wireless24Nodes.visualizer.infoVisualizer visualizationSubjectModule "\"^.^\""
par wireless24Nodes.visualizer.infoVisualizer tags "\"\""
par wireless24Nodes.visualizer.infoVisualizer networkNodeVisualizerModule "\"^.networkNodeVisualizer\""
par wireless24Nodes.visualizer.infoVisualizer displayInfos true
par wireless24Nodes.visualizer.infoVisualizer modules "\"\""
attr mutable ""
par wireless24Nodes.visualizer.infoVisualizer format "\"%t\""
attr mutable ""
par wireless24Nodes.visualizer.infoVisualizer font "\"<default>\""
par wireless24Nodes.visualizer.infoVisualizer textColor "\"black\""
par wireless24Nodes.visualizer.infoVisualizer backgroundColor "\"white\""
par wireless24Nodes.visualizer.infoVisualizer opacity 1
par wireless24Nodes.visualizer.infoVisualizer placementHint "\"top\""
par wireless24Nodes.visualizer.infoVisualizer placementPriority 0
par wireless24Nodes.visualizer.infoVisualizer zIndex 10
par wireless24Nodes.visualizer.energyStorageVisualizer typename "\"inet.visualizer.canvas.power.EnergyStorageCanvasVisualizer\""
par wireless24Nodes.visualizer.energyStorageVisualizer visualizationTargetModule "\"^.^\""
par wireless24Nodes.visualizer.energyStorageVisualizer visualizationSubjectModule "\"^.^\""
par wireless24Nodes.visualizer.energyStorageVisualizer tags "\"\""
par wireless24Nodes.visualizer.energyStorageVisualizer networkNodeVisualizerModule "\"^.networkNodeVisualizer\""
par wireless24Nodes.visualizer.energyStorageVisualizer displayEnergyStorages false
par wireless24Nodes.visualizer.energyStorageVisualizer energyStorageFilter "\"**\""
par wireless24Nodes.visualizer.energyStorageVisualizer color "\"green\""
par wireless24Nodes.visualizer.energyStorageVisualizer width 8
par wireless24Nodes.visualizer.energyStorageVisualizer height 24
par wireless24Nodes.visualizer.energyStorageVisualizer spacing 2
par wireless24Nodes.visualizer.energyStorageVisualizer placementHint "\"right\""
par wireless24Nodes.visualizer.energyStorageVisualizer placementPriority 0
par wireless24Nodes.visualizer.energyStorageVisualizer zIndex 10
par wireless24Nodes.visualizer.mediumVisualizer typename "\"inet.visualizer.canvas.physicallayer.MediumCanvasVisualizer\""
par wireless24Nodes.visualizer.mediumVisualizer visualizationTargetModule "\"^.^\""
par wireless24Nodes.visualizer.mediumVisualizer visualizationSubjectModule "\"^.^\""
par wireless24Nodes.visualizer.mediumVisualizer tags "\"\""
par wireless24Nodes.visualizer.mediumVisualizer mediumModule "\"radioMedium\""
par wireless24Nodes.visualizer.mediumVisualizer networkNodeVisualizerModule "\"^.networkNodeVisualizer\""
par wireless24Nodes.visualizer.mediumVisualizer nodeFilter "\"*\""
attr mutable ""
par wireless24Nodes.visualizer.mediumVisualizer interfaceFilter "\"*\""
attr mutable ""
par wireless24Nodes.visualizer.mediumVisualizer packetFilter "(omnetpp::cValueHolder)holder: \"*\""
attr mutable ""
par wireless24Nodes.visualizer.mediumVisualizer displaySignals false
par wireless24Nodes.visualizer.mediumVisualizer signalColor "\"dark\""
attr enum light,dark
par wireless24Nodes.visualizer.mediumVisualizer signalPropagationAnimationSpeed "nan "
attr mutable ""
par wireless24Nodes.visualizer.mediumVisualizer signalPropagationAnimationTime 1s
attr unit s
par wireless24Nodes.visualizer.mediumVisualizer signalPropagationAdditionalTime 0s
attr unit s
par wireless24Nodes.visualizer.mediumVisualizer signalTransmissionAnimationSpeed "nan "
attr mutable ""
par wireless24Nodes.visualizer.mediumVisualizer signalTransmissionAnimationTime 1s
attr unit s
par wireless24Nodes.visualizer.mediumVisualizer signalAnimationSpeedChangeTimeMode "\"realTime\""
attr enum realTime,animationTime,simulationTime
par wireless24Nodes.visualizer.mediumVisualizer signalAnimationSpeedChangeTime 1s
attr unit s
par wireless24Nodes.visualizer.mediumVisualizer displaySignalDepartures false
par wireless24Nodes.visualizer.mediumVisualizer signalDepartureImage "\"misc/signal_departure.png\""
par wireless24Nodes.visualizer.mediumVisualizer signalDeparturePlacementHint "\"topCenter\""
par wireless24Nodes.visualizer.mediumVisualizer signalDeparturePlacementPriority 1
par wireless24Nodes.visualizer.mediumVisualizer displaySignalArrivals false
par wireless24Nodes.visualizer.mediumVisualizer signalArrivalImage "\"misc/signal_arrival.png\""
par wireless24Nodes.visualizer.mediumVisualizer signalArrivalPlacementHint "\"topCenter\""
par wireless24Nodes.visualizer.mediumVisualizer signalArrivalPlacementPriority -1
par wireless24Nodes.visualizer.mediumVisualizer displayCommunicationRanges false
par wireless24Nodes.visualizer.mediumVisualizer communicationRangeLineColor "\"blue\""
par wireless24Nodes.visualizer.mediumVisualizer communicationRangeLineStyle "\"solid\""
par wireless24Nodes.visualizer.mediumVisualizer communicationRangeLineWidth 1
par wireless24Nodes.visualizer.mediumVisualizer displayInterferenceRanges false
par wireless24Nodes.visualizer.mediumVisualizer interferenceRangeLineColor "\"gray\""
par wireless24Nodes.visualizer.mediumVisualizer interferenceRangeLineStyle "\"solid\""
par wireless24Nodes.visualizer.mediumVisualizer interferenceRangeLineWidth 1
par wireless24Nodes.visualizer.mediumVisualizer autoPowerAxis true
par wireless24Nodes.visualizer.mediumVisualizer signalMinPower "inf dBmW"
attr unit dBmW
par wireless24Nodes.visualizer.mediumVisualizer signalMaxPower 0dBmW
attr unit dBmW
par wireless24Nodes.visualizer.mediumVisualizer signalMinPowerDensity "inf dBmWpMHz"
attr unit dBmWpMHz
par wireless24Nodes.visualizer.mediumVisualizer signalMaxPowerDensity "-inf dBmWpMHz"
attr unit dBmWpMHz
par wireless24Nodes.visualizer.mediumVisualizer autoTimeAxis true
par wireless24Nodes.visualizer.mediumVisualizer signalMinTime 0s
attr unit s
par wireless24Nodes.visualizer.mediumVisualizer signalMaxTime 0s
attr unit s
par wireless24Nodes.visualizer.mediumVisualizer autoFrequencyAxis true
par wireless24Nodes.visualizer.mediumVisualizer signalMinFrequency "inf Hz"
attr unit Hz
par wireless24Nodes.visualizer.mediumVisualizer signalMaxFrequency "-inf Hz"
attr unit Hz
par wireless24Nodes.visualizer.mediumVisualizer displayMainPowerDensityMap false
par wireless24Nodes.visualizer.mediumVisualizer mainPowerDensityMapPixmapDensity 1
par wireless24Nodes.visualizer.mediumVisualizer mainPowerDensityMapMinX 0
par wireless24Nodes.visualizer.mediumVisualizer mainPowerDensityMapMaxX "nan "
par wireless24Nodes.visualizer.mediumVisualizer mainPowerDensityMapMinY 0
par wireless24Nodes.visualizer.mediumVisualizer mainPowerDensityMapMaxY "nan "
par wireless24Nodes.visualizer.mediumVisualizer mainPowerDensityMapZ 0
par wireless24Nodes.visualizer.mediumVisualizer mainPowerDensityMapFigureXTickCount 3
par wireless24Nodes.visualizer.mediumVisualizer mainPowerDensityMapFigureYTickCount 3
par wireless24Nodes.visualizer.mediumVisualizer displayPowerDensityMaps false
par wireless24Nodes.visualizer.mediumVisualizer powerDensityMapMode "\"auto\""
attr enum total,signal,auto
par wireless24Nodes.visualizer.mediumVisualizer powerDensityMapPixelMode "\"mean\""
attr enum sample,partition,mean
par wireless24Nodes.visualizer.mediumVisualizer powerDensityMapApproximationSize 10
par wireless24Nodes.visualizer.mediumVisualizer powerDensityMapCenterFrequency "nan Hz"
attr mutable ""
attr unit Hz
par wireless24Nodes.visualizer.mediumVisualizer powerDensityMapBandwidth 0Hz
attr mutable ""
attr unit Hz
par wireless24Nodes.visualizer.mediumVisualizer powerDensityMapFigureWidth 200
par wireless24Nodes.visualizer.mediumVisualizer powerDensityMapFigureHeight 120
par wireless24Nodes.visualizer.mediumVisualizer powerDensityMapPixmapWidth 200
par wireless24Nodes.visualizer.mediumVisualizer powerDensityMapPixmapHeight 120
par wireless24Nodes.visualizer.mediumVisualizer powerDensityMapZ 0
par wireless24Nodes.visualizer.mediumVisualizer powerDensityMapFigureXTickCount 3
par wireless24Nodes.visualizer.mediumVisualizer powerDensityMapFigureYTickCount 3
par wireless24Nodes.visualizer.mediumVisualizer displaySpectrums false
par wireless24Nodes.visualizer.mediumVisualizer spectrumMode "\"auto\""
attr enum total,signal,auto
par wireless24Nodes.visualizer.mediumVisualizer spectrumFigureWidth 200
par wireless24Nodes.visualizer.mediumVisualizer spectrumFigureHeight 120
par wireless24Nodes.visualizer.mediumVisualizer spectrumFigureXTickCount 3
par wireless24Nodes.visualizer.mediumVisualizer spectrumFigureYTickCount 5
par wireless24Nodes.visualizer.mediumVisualizer spectrumFigureInterpolationSize 5
par wireless24Nodes.visualizer.mediumVisualizer spectrumPlacementHint "\"bottomCenter\""
par wireless24Nodes.visualizer.mediumVisualizer spectrumPlacementPriority -1
par wireless24Nodes.visualizer.mediumVisualizer displaySpectrograms false
par wireless24Nodes.visualizer.mediumVisualizer spectrogramMode "\"auto\""
attr enum total,signal,auto
par wireless24Nodes.visualizer.mediumVisualizer spectrogramPixelMode "\"mean\""
attr enum sample,partition,mean
par wireless24Nodes.visualizer.mediumVisualizer spectrogramFigureWidth 200
par wireless24Nodes.visualizer.mediumVisualizer spectrogramFigureHeight 120
par wireless24Nodes.visualizer.mediumVisualizer spectrogramPixmapWidth 200
par wireless24Nodes.visualizer.mediumVisualizer spectrogramPixmapHeight 120
par wireless24Nodes.visualizer.mediumVisualizer spectrogramFigureXTickCount 3
par wireless24Nodes.visualizer.mediumVisualizer spectrogramFigureYTickCount 5
par wireless24Nodes.visualizer.mediumVisualizer spectrogramPlacementHint "\"bottomCenter\""
par wireless24Nodes.visualizer.mediumVisualizer spectrogramPlacementPriority -1
par wireless24Nodes.visualizer.mediumVisualizer zIndex 0
par wireless24Nodes.visualizer.mediumVisualizer signalShape "\"ring\""
attr enum ring,sphere
par wireless24Nodes.visualizer.mediumVisualizer signalOpacity 0.5
par wireless24Nodes.visualizer.mediumVisualizer signalRingCount 20
par wireless24Nodes.visualizer.mediumVisualizer signalRingSize 50m
attr unit m
par wireless24Nodes.visualizer.mediumVisualizer signalFadingDistance 50m
attr unit m
par wireless24Nodes.visualizer.mediumVisualizer signalFadingFactor 1.2
par wireless24Nodes.visualizer.mediumVisualizer signalWaveCount 20
par wireless24Nodes.visualizer.mediumVisualizer signalWaveLength 50m
attr unit m
par wireless24Nodes.visualizer.mediumVisualizer signalWaveWidth 10m
attr unit m
par wireless24Nodes.visualizer.mediumVisualizer signalWaveFadingAnimationSpeedFactor 1
par wireless24Nodes.visualizer.mediumVisualizer displayCommunicationHeat false
par wireless24Nodes.visualizer.obstacleLossVisualizer typename "\"inet.visualizer.canvas.physicallayer.TracingObstacleLossCanvasVisualizer\""
par wireless24Nodes.visualizer.obstacleLossVisualizer visualizationTargetModule "\"^.^\""
par wireless24Nodes.visualizer.obstacleLossVisualizer visualizationSubjectModule "\"^.^\""
par wireless24Nodes.visualizer.obstacleLossVisualizer tags "\"\""
par wireless24Nodes.visualizer.obstacleLossVisualizer displayIntersections false
par wireless24Nodes.visualizer.obstacleLossVisualizer intersectionLineColor "\"red\""
par wireless24Nodes.visualizer.obstacleLossVisualizer intersectionLineStyle "\"solid\""
par wireless24Nodes.visualizer.obstacleLossVisualizer intersectionLineWidth 1
par wireless24Nodes.visualizer.obstacleLossVisualizer displayFaceNormalVectors false
par wireless24Nodes.visualizer.obstacleLossVisualizer faceNormalLineColor "\"grey\""
par wireless24Nodes.visualizer.obstacleLossVisualizer faceNormalLineStyle "\"solid\""
par wireless24Nodes.visualizer.obstacleLossVisualizer faceNormalLineWidth 1
par wireless24Nodes.visualizer.obstacleLossVisualizer fadeOutMode "\"realTime\""
attr enum realTime,animationTime,simulationTime
par wireless24Nodes.visualizer.obstacleLossVisualizer fadeOutTime 1s
attr unit s
par wireless24Nodes.visualizer.obstacleLossVisualizer fadeOutAnimationSpeed 0
par wireless24Nodes.visualizer.obstacleLossVisualizer zIndex 0
par wireless24Nodes.visualizer.packetDropVisualizer typename "\"inet.visualizer.canvas.common.PacketDropCanvasVisualizer\""
par wireless24Nodes.visualizer.packetDropVisualizer visualizationTargetModule "\"^.^\""
par wireless24Nodes.visualizer.packetDropVisualizer visualizationSubjectModule "\"^.^\""
par wireless24Nodes.visualizer.packetDropVisualizer tags "\"\""
par wireless24Nodes.visualizer.packetDropVisualizer displayPacketDrops false
par wireless24Nodes.visualizer.packetDropVisualizer nodeFilter "\"*\""
attr mutable ""
par wireless24Nodes.visualizer.packetDropVisualizer interfaceFilter "\"*\""
attr mutable ""
par wireless24Nodes.visualizer.packetDropVisualizer packetFilter "(omnetpp::cValueHolder)holder: \"*\""
attr mutable ""
par wireless24Nodes.visualizer.packetDropVisualizer detailsFilter "\"*\""
attr mutable ""
par wireless24Nodes.visualizer.packetDropVisualizer icon "\"msg/packet_s\""
par wireless24Nodes.visualizer.packetDropVisualizer iconTintAmount 1
par wireless24Nodes.visualizer.packetDropVisualizer iconTintColor "\"dark\""
par wireless24Nodes.visualizer.packetDropVisualizer labelFormat "\"%n\""
attr mutable ""
par wireless24Nodes.visualizer.packetDropVisualizer labelFont "\"<default>\""
par wireless24Nodes.visualizer.packetDropVisualizer labelColor "\"black\""
par wireless24Nodes.visualizer.packetDropVisualizer fadeOutMode "\"realTime\""
attr enum realTime,animationTime,simulationTime
par wireless24Nodes.visualizer.packetDropVisualizer fadeOutTime 1s
attr unit s
par wireless24Nodes.visualizer.packetDropVisualizer fadeOutAnimationSpeed 0
par wireless24Nodes.visualizer.packetDropVisualizer zIndex 10
par wireless24Nodes.visualizer.packetDropVisualizer dx 32
par wireless24Nodes.visualizer.packetDropVisualizer dy 64
par wireless24Nodes.visualizer.packetFlowVisualizer typename "\"inet.visualizer.canvas.flow.PacketFlowCanvasVisualizer\""
par wireless24Nodes.visualizer.packetFlowVisualizer visualizationTargetModule "\"^.^\""
par wireless24Nodes.visualizer.packetFlowVisualizer visualizationSubjectModule "\"^.^\""
par wireless24Nodes.visualizer.packetFlowVisualizer tags "\"\""
par wireless24Nodes.visualizer.packetFlowVisualizer displayRoutes false
par wireless24Nodes.visualizer.packetFlowVisualizer startPathSignal "\"packetFlowStarted\""
par wireless24Nodes.visualizer.packetFlowVisualizer extendPathSignal "\"packetReceivedFromLower\""
par wireless24Nodes.visualizer.packetFlowVisualizer endPathSignal "\"packetFlowEnded\""
par wireless24Nodes.visualizer.packetFlowVisualizer nodeFilter "\"*\""
attr mutable ""
par wireless24Nodes.visualizer.packetFlowVisualizer packetFilter "(omnetpp::cValueHolder)holder: \"*\""
attr mutable ""
par wireless24Nodes.visualizer.packetFlowVisualizer lineColor "\"dark\""
attr enum light,dark
par wireless24Nodes.visualizer.packetFlowVisualizer lineStyle "\"dashed\""
par wireless24Nodes.visualizer.packetFlowVisualizer lineWidth 3
par wireless24Nodes.visualizer.packetFlowVisualizer lineSmooth false
par wireless24Nodes.visualizer.packetFlowVisualizer lineShift 16
par wireless24Nodes.visualizer.packetFlowVisualizer lineShiftMode "\"normal\""
par wireless24Nodes.visualizer.packetFlowVisualizer lineContactSpacing 3
par wireless24Nodes.visualizer.packetFlowVisualizer lineContactMode "\"rectangular\""
attr enum circular,rectangular
par wireless24Nodes.visualizer.packetFlowVisualizer labelFormat "\"%L %p pk (%l)\""
par wireless24Nodes.visualizer.packetFlowVisualizer labelFont "\"<default>, 8px\""
par wireless24Nodes.visualizer.packetFlowVisualizer labelColor "\"\""
par wireless24Nodes.visualizer.packetFlowVisualizer fadeOutMode "\"realTime\""
attr enum realTime,animationTime,simulationTime
par wireless24Nodes.visualizer.packetFlowVisualizer fadeOutTime 0s
attr unit s
par wireless24Nodes.visualizer.packetFlowVisualizer fadeOutAnimationSpeed 0
par wireless24Nodes.visualizer.packetFlowVisualizer zIndex 4
par wireless24Nodes.visualizer.queueVisualizer typename "\"inet.visualizer.canvas.common.QueueCanvasVisualizer\""
par wireless24Nodes.visualizer.queueVisualizer visualizationTargetModule "\"^.^\""
par wireless24Nodes.visualizer.queueVisualizer visualizationSubjectModule "\"^.^\""
par wireless24Nodes.visualizer.queueVisualizer tags "\"\""
par wireless24Nodes.visualizer.queueVisualizer networkNodeVisualizerModule "\"^.networkNodeVisualizer\""
par wireless24Nodes.visualizer.queueVisualizer displayQueues false
par wireless24Nodes.visualizer.queueVisualizer queueFilter "\"**\""
par wireless24Nodes.visualizer.queueVisualizer color "\"blue\""
par wireless24Nodes.visualizer.queueVisualizer width 8
par wireless24Nodes.visualizer.queueVisualizer height 24
par wireless24Nodes.visualizer.queueVisualizer spacing 2
par wireless24Nodes.visualizer.queueVisualizer placementHint "\"right\""
par wireless24Nodes.visualizer.queueVisualizer placementPriority 0
par wireless24Nodes.visualizer.queueVisualizer zIndex 10
par wireless24Nodes.visualizer.gateScheduleVisualizer typename "\"inet.visualizer.canvas.common.GateScheduleCanvasVisualizer\""
par wireless24Nodes.visualizer.gateScheduleVisualizer visualizationTargetModule "\"^.^\""
par wireless24Nodes.visualizer.gateScheduleVisualizer visualizationSubjectModule "\"^.^\""
par wireless24Nodes.visualizer.gateScheduleVisualizer tags "\"\""
par wireless24Nodes.visualizer.gateScheduleVisualizer networkNodeVisualizerModule "\"^.networkNodeVisualizer\""
par wireless24Nodes.visualizer.gateScheduleVisualizer displayGateSchedules false
par wireless24Nodes.visualizer.gateScheduleVisualizer labelFormat "\"%i %D\""
par wireless24Nodes.visualizer.gateScheduleVisualizer gateFilter "\"**\""
par wireless24Nodes.visualizer.gateScheduleVisualizer width 100
par wireless24Nodes.visualizer.gateScheduleVisualizer height 8
par wireless24Nodes.visualizer.gateScheduleVisualizer spacing 2
par wireless24Nodes.visualizer.gateScheduleVisualizer placementHint "\"right\""
par wireless24Nodes.visualizer.gateScheduleVisualizer placementPriority 0
par wireless24Nodes.visualizer.gateScheduleVisualizer displayDuration 0s
attr mutable ""
attr unit s
par wireless24Nodes.visualizer.gateScheduleVisualizer currentTimePosition 50
par wireless24Nodes.visualizer.gateScheduleVisualizer zIndex 10
par wireless24Nodes.visualizer.radioVisualizer typename "\"inet.visualizer.canvas.physicallayer.RadioCanvasVisualizer\""
par wireless24Nodes.visualizer.radioVisualizer visualizationTargetModule "\"^.^\""
par wireless24Nodes.visualizer.radioVisualizer visualizationSubjectModule "\"^.^\""
par wireless24Nodes.visualizer.radioVisualizer tags "\"\""
par wireless24Nodes.visualizer.radioVisualizer networkNodeVisualizerModule "\"^.networkNodeVisualizer\""
par wireless24Nodes.visualizer.radioVisualizer displayRadios false
par wireless24Nodes.visualizer.radioVisualizer displayRadioMode true
par wireless24Nodes.visualizer.radioVisualizer displayReceptionState true
par wireless24Nodes.visualizer.radioVisualizer displayTransmissionState true
par wireless24Nodes.visualizer.radioVisualizer displayAntennaLobes false
par wireless24Nodes.visualizer.radioVisualizer radioFilter "\"**\""
attr mutable ""
par wireless24Nodes.visualizer.radioVisualizer radioModeImages "\"block/process_vs block/timer_vs block/wrx_vs block/wtx_vs block/wrxtx_vs block/cogwheel_vs\""
par wireless24Nodes.visualizer.radioVisualizer receptionStateImages "\"- - misc/receiving misc/receiving\""
par wireless24Nodes.visualizer.radioVisualizer transmissionStateImages "\"- - misc/transmitting\""
par wireless24Nodes.visualizer.radioVisualizer width 16
par wireless24Nodes.visualizer.radioVisualizer height 16
par wireless24Nodes.visualizer.radioVisualizer placementHint "\"bottomRight\""
par wireless24Nodes.visualizer.radioVisualizer placementPriority 0
par wireless24Nodes.visualizer.radioVisualizer antennaLobeNormalize false
par wireless24Nodes.visualizer.radioVisualizer antennaLobeRelativeLabels false
par wireless24Nodes.visualizer.radioVisualizer antennaLobePlaneGlobal true
par wireless24Nodes.visualizer.radioVisualizer antennaLobePlane "\"view\""
attr enum view,xy,xz,yz
par wireless24Nodes.visualizer.radioVisualizer antennaLobeMode "\"logarithmic\""
attr enum logarithmic,linear
par wireless24Nodes.visualizer.radioVisualizer antennaLobeLogarithmicBase 10
par wireless24Nodes.visualizer.radioVisualizer antennaLobeLogarithmicScale 100
par wireless24Nodes.visualizer.radioVisualizer antennaLobeRadius 100
par wireless24Nodes.visualizer.radioVisualizer antennaLobeStep 10deg
attr unit deg
par wireless24Nodes.visualizer.radioVisualizer antennaLobeOpacity 0.25
par wireless24Nodes.visualizer.radioVisualizer antennaLobeLineSmooth true
par wireless24Nodes.visualizer.radioVisualizer antennaLobeLineColor "\"black\""
par wireless24Nodes.visualizer.radioVisualizer antennaLobeLineStyle "\"solid\""
par wireless24Nodes.visualizer.radioVisualizer antennaLobeLineWidth 1
par wireless24Nodes.visualizer.radioVisualizer antennaLobeFillColor "\"white\""
par wireless24Nodes.visualizer.radioVisualizer zIndex 10
par wireless24Nodes.visualizer.physicalLinkVisualizer typename "\"inet.visualizer.canvas.physicallayer.PhysicalLinkCanvasVisualizer\""
par wireless24Nodes.visualizer.physicalLinkVisualizer visualizationTargetModule "\"^.^\""
par wireless24Nodes.visualizer.physicalLinkVisualizer visualizationSubjectModule "\"^.^\""
par wireless24Nodes.visualizer.physicalLinkVisualizer tags "\"\""
par wireless24Nodes.visualizer.physicalLinkVisualizer displayLinks false
par wireless24Nodes.visualizer.physicalLinkVisualizer activityLevel "\"service\""
attr enum service,peer,protocol
par wireless24Nodes.visualizer.physicalLinkVisualizer nodeFilter "\"*\""
attr mutable ""
par wireless24Nodes.visualizer.physicalLinkVisualizer interfaceFilter "\"*\""
attr mutable ""
par wireless24Nodes.visualizer.physicalLinkVisualizer packetFilter "(omnetpp::cValueHolder)holder: \"*\""
attr mutable ""
par wireless24Nodes.visualizer.physicalLinkVisualizer lineColor "\"olive\""
par wireless24Nodes.visualizer.physicalLinkVisualizer lineStyle "\"dotted\""
par wireless24Nodes.visualizer.physicalLinkVisualizer lineWidth 3
par wireless24Nodes.visualizer.physicalLinkVisualizer lineShift 16
par wireless24Nodes.visualizer.physicalLinkVisualizer lineShiftMode "\"normal\""
par wireless24Nodes.visualizer.physicalLinkVisualizer lineContactSpacing 3
par wireless24Nodes.visualizer.physicalLinkVisualizer lineContactMode "\"rectangular\""
attr enum circular,rectangular
par wireless24Nodes.visualizer.physicalLinkVisualizer labelFormat "\"%n\""
par wireless24Nodes.visualizer.physicalLinkVisualizer labelFont "\"<default>, 8px\""
par wireless24Nodes.visualizer.physicalLinkVisualizer labelColor "\"olive\""
par wireless24Nodes.visualizer.physicalLinkVisualizer fadeOutMode "\"realTime\""
attr enum realTime,animationTime,simulationTime
par wireless24Nodes.visualizer.physicalLinkVisualizer fadeOutTime 1s
attr unit s
par wireless24Nodes.visualizer.physicalLinkVisualizer fadeOutAnimationSpeed 0
par wireless24Nodes.visualizer.physicalLinkVisualizer holdAnimationTime 0s
attr unit s
par wireless24Nodes.visualizer.physicalLinkVisualizer zIndex 1
par wireless24Nodes.visualizer.interfaceTableVisualizer typename "\"inet.visualizer.canvas.linklayer.InterfaceTableCanvasVisualizer\""
par wireless24Nodes.visualizer.interfaceTableVisualizer visualizationTargetModule "\"^.^\""
par wireless24Nodes.visualizer.interfaceTableVisualizer visualizationSubjectModule "\"^.^\""
par wireless24Nodes.visualizer.interfaceTableVisualizer tags "\"\""
par wireless24Nodes.visualizer.interfaceTableVisualizer networkNodeVisualizerModule "\"^.networkNodeVisualizer\""
par wireless24Nodes.visualizer.interfaceTableVisualizer displayInterfaceTables false
par wireless24Nodes.visualizer.interfaceTableVisualizer displayWiredInterfacesAtConnections true
par wireless24Nodes.visualizer.interfaceTableVisualizer displayBackground false
par wireless24Nodes.visualizer.interfaceTableVisualizer nodeFilter "\"*\""
attr mutable ""
par wireless24Nodes.visualizer.interfaceTableVisualizer interfaceFilter "\"not(lo*)\""
attr mutable ""
par wireless24Nodes.visualizer.interfaceTableVisualizer format "\"%N %\\\\%a%/%l\""
attr mutable ""
par wireless24Nodes.visualizer.interfaceTableVisualizer placementHint "\"top\""
par wireless24Nodes.visualizer.interfaceTableVisualizer placementPriority 0
par wireless24Nodes.visualizer.interfaceTableVisualizer font "\"<default>\""
par wireless24Nodes.visualizer.interfaceTableVisualizer textColor "\"#005030\""
par wireless24Nodes.visualizer.interfaceTableVisualizer backgroundColor "\"white\""
par wireless24Nodes.visualizer.interfaceTableVisualizer opacity 1
par wireless24Nodes.visualizer.interfaceTableVisualizer zIndex 10
par wireless24Nodes.visualizer.dataLinkVisualizer typename "\"inet.visualizer.canvas.linklayer.DataLinkCanvasVisualizer\""
par wireless24Nodes.visualizer.dataLinkVisualizer visualizationTargetModule "\"^.^\""
par wireless24Nodes.visualizer.dataLinkVisualizer visualizationSubjectModule "\"^.^\""
par wireless24Nodes.visualizer.dataLinkVisualizer tags "\"\""
par wireless24Nodes.visualizer.dataLinkVisualizer displayLinks false
par wireless24Nodes.visualizer.dataLinkVisualizer activityLevel "\"service\""
attr enum service,peer,protocol
par wireless24Nodes.visualizer.dataLinkVisualizer nodeFilter "\"*\""
attr mutable ""
par wireless24Nodes.visualizer.dataLinkVisualizer interfaceFilter "\"*\""
attr mutable ""
par wireless24Nodes.visualizer.dataLinkVisualizer packetFilter "(omnetpp::cValueHolder)holder: \"*\""
attr mutable ""
par wireless24Nodes.visualizer.dataLinkVisualizer lineColor "\"darkcyan\""
par wireless24Nodes.visualizer.dataLinkVisualizer lineStyle "\"solid\""
par wireless24Nodes.visualizer.dataLinkVisualizer lineWidth 3
par wireless24Nodes.visualizer.dataLinkVisualizer lineShift 16
par wireless24Nodes.visualizer.dataLinkVisualizer lineShiftMode "\"normal\""
par wireless24Nodes.visualizer.dataLinkVisualizer lineContactSpacing 3
par wireless24Nodes.visualizer.dataLinkVisualizer lineContactMode "\"rectangular\""
attr enum circular,rectangular
par wireless24Nodes.visualizer.dataLinkVisualizer labelFormat "\"%n\""
par wireless24Nodes.visualizer.dataLinkVisualizer labelFont "\"<default>, 8px\""
par wireless24Nodes.visualizer.dataLinkVisualizer labelColor "\"darkcyan\""
par wireless24Nodes.visualizer.dataLinkVisualizer fadeOutMode "\"realTime\""
attr enum realTime,animationTime,simulationTime
par wireless24Nodes.visualizer.dataLinkVisualizer fadeOutTime 1s
attr unit s
par wireless24Nodes.visualizer.dataLinkVisualizer fadeOutAnimationSpeed 0
par wireless24Nodes.visualizer.dataLinkVisualizer holdAnimationTime 0s
attr unit s
par wireless24Nodes.visualizer.dataLinkVisualizer zIndex 2
par wireless24Nodes.visualizer.linkBreakVisualizer typename "\"inet.visualizer.canvas.linklayer.LinkBreakCanvasVisualizer\""
par wireless24Nodes.visualizer.linkBreakVisualizer visualizationTargetModule "\"^.^\""
par wireless24Nodes.visualizer.linkBreakVisualizer visualizationSubjectModule "\"^.^\""
par wireless24Nodes.visualizer.linkBreakVisualizer tags "\"\""
par wireless24Nodes.visualizer.linkBreakVisualizer displayLinkBreaks false
par wireless24Nodes.visualizer.linkBreakVisualizer nodeFilter "\"*\""
attr mutable ""
par wireless24Nodes.visualizer.linkBreakVisualizer interfaceFilter "\"*\""
attr mutable ""
par wireless24Nodes.visualizer.linkBreakVisualizer packetFilter "(omnetpp::cValueHolder)holder: \"*\""
attr mutable ""
par wireless24Nodes.visualizer.linkBreakVisualizer icon "\"status/stop\""
par wireless24Nodes.visualizer.linkBreakVisualizer iconTintAmount 0
par wireless24Nodes.visualizer.linkBreakVisualizer iconTintColor "\"\""
par wireless24Nodes.visualizer.linkBreakVisualizer fadeOutMode "\"realTime\""
attr enum realTime,animationTime,simulationTime
par wireless24Nodes.visualizer.linkBreakVisualizer fadeOutTime 1s
attr unit s
par wireless24Nodes.visualizer.linkBreakVisualizer fadeOutAnimationSpeed 0
par wireless24Nodes.visualizer.linkBreakVisualizer zIndex 2
par wireless24Nodes.visualizer.ieee80211Visualizer typename "\"inet.visualizer.canvas.linklayer.Ieee80211CanvasVisualizer\""
par wireless24Nodes.visualizer.ieee80211Visualizer visualizationTargetModule "\"^.^\""
par wireless24Nodes.visualizer.ieee80211Visualizer visualizationSubjectModule "\"^.^\""
par wireless24Nodes.visualizer.ieee80211Visualizer tags "\"\""
par wireless24Nodes.visualizer.ieee80211Visualizer networkNodeVisualizerModule "\"^.networkNodeVisualizer\""
par wireless24Nodes.visualizer.ieee80211Visualizer displayAssociations false
par wireless24Nodes.visualizer.ieee80211Visualizer nodeFilter "\"*\""
attr mutable ""
par wireless24Nodes.visualizer.ieee80211Visualizer interfaceFilter "\"*\""
attr mutable ""
par wireless24Nodes.visualizer.ieee80211Visualizer minPower -85dBm
attr unit dBm
par wireless24Nodes.visualizer.ieee80211Visualizer maxPower -50dBm
attr unit dBm
par wireless24Nodes.visualizer.ieee80211Visualizer icons "\"misc/signal_power_0 misc/signal_power_1 misc/signal_power_2 misc/signal_power_3\""
par wireless24Nodes.visualizer.ieee80211Visualizer iconColor "\"dark\""
attr enum light,dark
par wireless24Nodes.visualizer.ieee80211Visualizer labelFont "\"<default>\""
par wireless24Nodes.visualizer.ieee80211Visualizer labelColor "\"black\""
par wireless24Nodes.visualizer.ieee80211Visualizer placementHint "\"top\""
par wireless24Nodes.visualizer.ieee80211Visualizer placementPriority 0
par wireless24Nodes.visualizer.ieee80211Visualizer zIndex 2
par wireless24Nodes.visualizer.networkRouteVisualizer typename "\"inet.visualizer.canvas.networklayer.NetworkRouteCanvasVisualizer\""
par wireless24Nodes.visualizer.networkRouteVisualizer visualizationTargetModule "\"^.^\""
par wireless24Nodes.visualizer.networkRouteVisualizer visualizationSubjectModule "\"^.^\""
par wireless24Nodes.visualizer.networkRouteVisualizer tags "\"\""
par wireless24Nodes.visualizer.networkRouteVisualizer displayRoutes false
par wireless24Nodes.visualizer.networkRouteVisualizer startPathSignal "\"packetReceivedFromUpper\""
par wireless24Nodes.visualizer.networkRouteVisualizer extendPathSignal "\"packetReceivedFromLower\""
par wireless24Nodes.visualizer.networkRouteVisualizer endPathSignal "\"packetSentToUpper\""
par wireless24Nodes.visualizer.networkRouteVisualizer nodeFilter "\"*\""
attr mutable ""
par wireless24Nodes.visualizer.networkRouteVisualizer packetFilter "(omnetpp::cValueHolder)holder: \"*\""
attr mutable ""
par wireless24Nodes.visualizer.networkRouteVisualizer lineColor "\"dark\""
attr enum light,dark
par wireless24Nodes.visualizer.networkRouteVisualizer lineStyle "\"solid\""
par wireless24Nodes.visualizer.networkRouteVisualizer lineWidth 3
par wireless24Nodes.visualizer.networkRouteVisualizer lineSmooth false
par wireless24Nodes.visualizer.networkRouteVisualizer lineShift 16
par wireless24Nodes.visualizer.networkRouteVisualizer lineShiftMode "\"normal\""
par wireless24Nodes.visualizer.networkRouteVisualizer lineContactSpacing 3
par wireless24Nodes.visualizer.networkRouteVisualizer lineContactMode "\"rectangular\""
attr enum circular,rectangular
par wireless24Nodes.visualizer.networkRouteVisualizer labelFormat "\"%n\""
par wireless24Nodes.visualizer.networkRouteVisualizer labelFont "\"<default>, 8px\""
par wireless24Nodes.visualizer.networkRouteVisualizer labelColor "\"\""
par wireless24Nodes.visualizer.networkRouteVisualizer fadeOutMode "\"realTime\""
attr enum realTime,animationTime,simulationTime
par wireless24Nodes.visualizer.networkRouteVisualizer fadeOutTime 1s
attr unit s
par wireless24Nodes.visualizer.networkRouteVisualizer fadeOutAnimationSpeed 0
par wireless24Nodes.visualizer.networkRouteVisualizer zIndex 3
par wireless24Nodes.visualizer.routingTableVisualizer typename "\"inet.visualizer.canvas.networklayer.RoutingTableCanvasVisualizer\""
par wireless24Nodes.visualizer.routingTableVisualizer visualizationTargetModule "\"^.^\""
par wireless24Nodes.visualizer.routingTableVisualizer visualizationSubjectModule "\"^.^\""
par wireless24Nodes.visualizer.routingTableVisualizer tags "\"\""
par wireless24Nodes.visualizer.routingTableVisualizer displayRoutingTables false
par wireless24Nodes.visualizer.routingTableVisualizer displayRoutesIndividually true
par wireless24Nodes.visualizer.routingTableVisualizer displayLabels true
par wireless24Nodes.visualizer.routingTableVisualizer destinationFilter "\"*\""
attr mutable ""
par wireless24Nodes.visualizer.routingTableVisualizer nodeFilter "\"*\""
attr mutable ""
par wireless24Nodes.visualizer.routingTableVisualizer lineColor "\"black\""
par wireless24Nodes.visualizer.routingTableVisualizer lineStyle "\"solid\""
par wireless24Nodes.visualizer.routingTableVisualizer lineWidth 2
par wireless24Nodes.visualizer.routingTableVisualizer lineShift 16
par wireless24Nodes.visualizer.routingTableVisualizer lineShiftMode "\"normal\""
par wireless24Nodes.visualizer.routingTableVisualizer lineContactSpacing 3
par wireless24Nodes.visualizer.routingTableVisualizer lineContactMode "\"rectangular\""
attr enum circular,rectangular
par wireless24Nodes.visualizer.routingTableVisualizer labelFormat "\"%d/%m -> %g (%n)\""
attr mutable ""
par wireless24Nodes.visualizer.routingTableVisualizer labelFont "\"<default>, 8px\""
par wireless24Nodes.visualizer.routingTableVisualizer labelColor "\"black\""
par wireless24Nodes.visualizer.routingTableVisualizer zIndex 0
par wireless24Nodes.visualizer.transportRouteVisualizer typename "\"inet.visualizer.canvas.transportlayer.TransportRouteCanvasVisualizer\""
par wireless24Nodes.visualizer.transportRouteVisualizer visualizationTargetModule "\"^.^\""
par wireless24Nodes.visualizer.transportRouteVisualizer visualizationSubjectModule "\"^.^\""
par wireless24Nodes.visualizer.transportRouteVisualizer tags "\"\""
par wireless24Nodes.visualizer.transportRouteVisualizer displayRoutes false
par wireless24Nodes.visualizer.transportRouteVisualizer startPathSignal "\"packetReceivedFromUpper\""
par wireless24Nodes.visualizer.transportRouteVisualizer extendPathSignal "\"packetReceivedFromLower\""
par wireless24Nodes.visualizer.transportRouteVisualizer endPathSignal "\"packetSentToUpper\""
par wireless24Nodes.visualizer.transportRouteVisualizer nodeFilter "\"*\""
attr mutable ""
par wireless24Nodes.visualizer.transportRouteVisualizer packetFilter "(omnetpp::cValueHolder)holder: \"*\""
attr mutable ""
par wireless24Nodes.visualizer.transportRouteVisualizer lineColor "\"dark\""
attr enum light,dark
par wireless24Nodes.visualizer.transportRouteVisualizer lineStyle "\"solid\""
par wireless24Nodes.visualizer.transportRouteVisualizer lineWidth 3
par wireless24Nodes.visualizer.transportRouteVisualizer lineSmooth false
par wireless24Nodes.visualizer.transportRouteVisualizer lineShift 16
par wireless24Nodes.visualizer.transportRouteVisualizer lineShiftMode "\"normal\""
par wireless24Nodes.visualizer.transportRouteVisualizer lineContactSpacing 3
par wireless24Nodes.visualizer.transportRouteVisualizer lineContactMode "\"rectangular\""
attr enum circular,rectangular
par wireless24Nodes.visualizer.transportRouteVisualizer labelFormat "\"%n\""
par wireless24Nodes.visualizer.transportRouteVisualizer labelFont "\"<default>, 8px\""
par wireless24Nodes.visualizer.transportRouteVisualizer labelColor "\"\""
par wireless24Nodes.visualizer.transportRouteVisualizer fadeOutMode "\"realTime\""
attr enum realTime,animationTime,simulationTime
par wireless24Nodes.visualizer.transportRouteVisualizer fadeOutTime 1s
attr unit s
par wireless24Nodes.visualizer.transportRouteVisualizer fadeOutAnimationSpeed 0
par wireless24Nodes.visualizer.transportRouteVisualizer zIndex 4
par wireless24Nodes.visualizer.transportConnectionVisualizer typename "\"inet.visualizer.canvas.transportlayer.TransportConnectionCanvasVisualizer\""
par wireless24Nodes.visualizer.transportConnectionVisualizer visualizationTargetModule "\"^.^\""
par wireless24Nodes.visualizer.transportConnectionVisualizer visualizationSubjectModule "\"^.^\""
par wireless24Nodes.visualizer.transportConnectionVisualizer tags "\"\""
par wireless24Nodes.visualizer.transportConnectionVisualizer networkNodeVisualizerModule "\"^.networkNodeVisualizer\""
par wireless24Nodes.visualizer.transportConnectionVisualizer displayTransportConnections false
par wireless24Nodes.visualizer.transportConnectionVisualizer sourceNodeFilter "\"*\""
attr mutable ""
par wireless24Nodes.visualizer.transportConnectionVisualizer sourcePortFilter "\"*\""
attr mutable ""
par wireless24Nodes.visualizer.transportConnectionVisualizer destinationNodeFilter "\"*\""
attr mutable ""
par wireless24Nodes.visualizer.transportConnectionVisualizer destinationPortFilter "\"*\""
attr mutable ""
par wireless24Nodes.visualizer.transportConnectionVisualizer icon "\"misc/marker_s\""
par wireless24Nodes.visualizer.transportConnectionVisualizer iconColor "\"dark\""
attr enum light,dark
par wireless24Nodes.visualizer.transportConnectionVisualizer labelFont "\"<default>\""
par wireless24Nodes.visualizer.transportConnectionVisualizer labelColor "\"black\""
par wireless24Nodes.visualizer.transportConnectionVisualizer placementHint "\"top\""
par wireless24Nodes.visualizer.transportConnectionVisualizer placementPriority 0
par wireless24Nodes.visualizer.transportConnectionVisualizer zIndex 4
par wireless24Nodes.visualizer.failureProtectionConfigurationVisualizer typename "\"inet.visualizer.canvas.configurator.FailureProtectionConfigurationCanvasVisualizer\""
par wireless24Nodes.visualizer.failureProtectionConfigurationVisualizer visualizationTargetModule "\"^.^\""
par wireless24Nodes.visualizer.failureProtectionConfigurationVisualizer visualizationSubjectModule "\"^.^\""
par wireless24Nodes.visualizer.failureProtectionConfigurationVisualizer tags "\"\""
par wireless24Nodes.visualizer.failureProtectionConfigurationVisualizer displayTrees false
par wireless24Nodes.visualizer.failureProtectionConfigurationVisualizer lineColor "\"dark\""
attr enum light,dark
par wireless24Nodes.visualizer.failureProtectionConfigurationVisualizer lineStyle "\"solid\""
par wireless24Nodes.visualizer.failureProtectionConfigurationVisualizer lineWidth 3
par wireless24Nodes.visualizer.failureProtectionConfigurationVisualizer lineSmooth false
par wireless24Nodes.visualizer.failureProtectionConfigurationVisualizer lineShift 16
par wireless24Nodes.visualizer.failureProtectionConfigurationVisualizer lineShiftMode "\"normal\""
par wireless24Nodes.visualizer.failureProtectionConfigurationVisualizer lineContactSpacing 3
par wireless24Nodes.visualizer.failureProtectionConfigurationVisualizer lineContactMode "\"rectangular\""
attr enum circular,rectangular
par wireless24Nodes.visualizer.failureProtectionConfigurationVisualizer failureProtectionConfiguratorModule "\"failureProtectionConfigurator\""
par wireless24Nodes.visualizer.failureProtectionConfigurationVisualizer streamFilter "\"*\""
par wireless24Nodes.visualizer.failureProtectionConfigurationVisualizer zIndex 3
par wireless24Nodes.visualizer.streamRedundancyConfigurationVisualizer typename "\"inet.visualizer.canvas.configurator.StreamRedundancyConfigurationCanvasVisualizer\""
par wireless24Nodes.visualizer.streamRedundancyConfigurationVisualizer visualizationTargetModule "\"^.^\""
par wireless24Nodes.visualizer.streamRedundancyConfigurationVisualizer visualizationSubjectModule "\"^.^\""
par wireless24Nodes.visualizer.streamRedundancyConfigurationVisualizer tags "\"\""
par wireless24Nodes.visualizer.streamRedundancyConfigurationVisualizer displayTrees false
par wireless24Nodes.visualizer.streamRedundancyConfigurationVisualizer lineColor "\"dark\""
attr enum light,dark
par wireless24Nodes.visualizer.streamRedundancyConfigurationVisualizer lineStyle "\"solid\""
par wireless24Nodes.visualizer.streamRedundancyConfigurationVisualizer lineWidth 3
par wireless24Nodes.visualizer.streamRedundancyConfigurationVisualizer lineSmooth false
par wireless24Nodes.visualizer.streamRedundancyConfigurationVisualizer lineShift 16
par wireless24Nodes.visualizer.streamRedundancyConfigurationVisualizer lineShiftMode "\"normal\""
par wireless24Nodes.visualizer.streamRedundancyConfigurationVisualizer lineContactSpacing 3
par wireless24Nodes.visualizer.streamRedundancyConfigurationVisualizer lineContactMode "\"rectangular\""
attr enum circular,rectangular
par wireless24Nodes.visualizer.streamRedundancyConfigurationVisualizer streamRedundancyConfiguratorModule "\"streamRedundancyConfigurator\""
par wireless24Nodes.visualizer.streamRedundancyConfigurationVisualizer streamFilter "\"*\""
par wireless24Nodes.visualizer.streamRedundancyConfigurationVisualizer zIndex 3
par wireless24Nodes.visualizer typename "\"inet.visualizer.canvas.integrated.IntegratedCanvasVisualizer\""
par wireless24Nodes.configurator typename "\"inet.networklayer.configurator.ipv4.Ipv4NetworkConfigurator\""
par wireless24Nodes.configurator minLinkWeight 0.001
par wireless24Nodes.configurator configureIsolatedNetworksSeparatly false
par wireless24Nodes.configurator config "<config>...</config> at content:1"
par wireless24Nodes.configurator assignAddresses true
par wireless24Nodes.configurator assignUniqueAddresses true
par wireless24Nodes.configurator assignDisjunctSubnetAddresses true
par wireless24Nodes.configurator addStaticRoutes true
par wireless24Nodes.configurator addDefaultRoutes true
par wireless24Nodes.configurator addSubnetRoutes true
par wireless24Nodes.configurator addDirectRoutes true
par wireless24Nodes.configurator optimizeRoutes true
par wireless24Nodes.configurator dumpTopology false
par wireless24Nodes.configurator dumpLinks false
par wireless24Nodes.configurator dumpAddresses false
par wireless24Nodes.configurator dumpRoutes false
par wireless24Nodes.configurator dumpConfig "\"\""
par wireless24Nodes.radioMedium.propagation typename "\"inet.physicallayer.wireless.common.propagation.ConstantSpeedPropagation\""
par wireless24Nodes.radioMedium.propagation propagationSpeed 2.99792e+08mps
attr unit mps
par wireless24Nodes.radioMedium.propagation ignoreMovementDuringTransmission true
par wireless24Nodes.radioMedium.propagation ignoreMovementDuringPropagation true
par wireless24Nodes.radioMedium.propagation ignoreMovementDuringReception true
scalar wireless24Nodes.radioMedium.propagation "Arrival computation count" 2517327
par wireless24Nodes.radioMedium.analogModel typename "\"inet.physicallayer.wireless.unitdisk.UnitDiskAnalogModel\""
par wireless24Nodes.radioMedium.pathLoss typename "\"inet.physicallayer.wireless.common.pathloss.FreeSpacePathLoss\""
par wireless24Nodes.radioMedium.pathLoss alpha 2
par wireless24Nodes.radioMedium.pathLoss systemLoss 0dB
attr unit dB
par wireless24Nodes.radioMedium.mediumLimitCache typename "\"inet.physicallayer.wireless.common.medium.MediumLimitCache\""
par wireless24Nodes.radioMedium.mediumLimitCache centerFrequency "nan Hz"
attr unit Hz
par wireless24Nodes.radioMedium.mediumLimitCache maxSpeed "nan mps"
attr unit mps
par wireless24Nodes.radioMedium.mediumLimitCache maxTransmissionPower "nan W"
attr unit W
par wireless24Nodes.radioMedium.mediumLimitCache minInterferencePower "nan dBm"
attr unit dBm
par wireless24Nodes.radioMedium.mediumLimitCache minReceptionPower "nan dBm"
attr unit dBm
par wireless24Nodes.radioMedium.mediumLimitCache maxAntennaGain 0dB
attr unit dB
par wireless24Nodes.radioMedium.mediumLimitCache minInterferenceTime 1e-12s
attr unit s
par wireless24Nodes.radioMedium.mediumLimitCache maxTransmissionDuration 0.01s
attr unit s
par wireless24Nodes.radioMedium.mediumLimitCache maxCommunicationRange "nan m"
attr unit m
par wireless24Nodes.radioMedium.mediumLimitCache maxInterferenceRange "nan m"
attr unit m
par wireless24Nodes.radioMedium.communicationCache typename "\"inet.physicallayer.wireless.common.communicationcache.VectorCommunicationCache\""
par wireless24Nodes.radioMedium typename "\"inet.physicallayer.wireless.unitdisk.UnitDiskRadioMedium\""
par wireless24Nodes.radioMedium physicalEnvironmentModule "\"physicalEnvironment\""
par wireless24Nodes.radioMedium signalAnalogRepresentation "\"unitDisk\""
attr enum unitDisk,scalar,dimensional
par wireless24Nodes.radioMedium rangeFilter "\"\""
par wireless24Nodes.radioMedium radioModeFilter false
par wireless24Nodes.radioMedium listeningFilter false
par wireless24Nodes.radioMedium macAddressFilter false
par wireless24Nodes.radioMedium recordTransmissionLog false
par wireless24Nodes.radioMedium recordReceptionLog false
scalar wireless24Nodes.radioMedium "transmission count" 109449
scalar wireless24Nodes.radioMedium "signal send count" 2517327
scalar wireless24Nodes.radioMedium "reception computation count" 2517327
scalar wireless24Nodes.radioMedium "interference computation count" 4511659
scalar wireless24Nodes.radioMedium "reception decision computation count" 292904
scalar wireless24Nodes.radioMedium "listening decision computation count" 1701428
scalar wireless24Nodes.radioMedium "reception cache hit" 92.688933624751
attr unit %
scalar wireless24Nodes.radioMedium "interference cache hit" 66.666666666667
attr unit %
scalar wireless24Nodes.radioMedium "noise cache hit" 0
attr unit %
scalar wireless24Nodes.radioMedium "snir cache hit" 50
attr unit %
scalar wireless24Nodes.radioMedium "reception decision cache hit" 50
attr unit %
scalar wireless24Nodes.radioMedium "reception result cache hit" 0
attr unit %
par wireless24Nodes.host1.radioIn[0].channel typename "\"ned.IdealChannel\""
par wireless24Nodes.host1.mobility typename "\"inet.mobility.static.StationaryMobility\""
par wireless24Nodes.host1.mobility subjectModule "\"^\""
par wireless24Nodes.host1.mobility coordinateSystemModule "\"\""
par wireless24Nodes.host1.mobility displayStringTextFormat "\"p: %p\\nv: %v\""
attr mutable ""
par wireless24Nodes.host1.mobility updateDisplayString true
par wireless24Nodes.host1.mobility constraintAreaMinX 0m
attr unit m
par wireless24Nodes.host1.mobility constraintAreaMinY 0m
attr unit m
par wireless24Nodes.host1.mobility constraintAreaMinZ 0m
attr unit m
par wireless24Nodes.host1.mobility constraintAreaMaxX 10000m
attr unit m
par wireless24Nodes.host1.mobility constraintAreaMaxY 10000m
attr unit m
par wireless24Nodes.host1.mobility constraintAreaMaxZ 0m
attr unit m
par wireless24Nodes.host1.mobility initialX 5488.14m
attr unit m
par wireless24Nodes.host1.mobility initialY 5928.45m
attr unit m
par wireless24Nodes.host1.mobility initialZ 0m
attr unit m
par wireless24Nodes.host1.mobility initialLatitude "nan deg"
attr unit deg
par wireless24Nodes.host1.mobility initialLongitude "nan deg"
attr unit deg
par wireless24Nodes.host1.mobility initialAltitude 0m
attr unit m
par wireless24Nodes.host1.mobility initialHeading 0deg
attr unit deg
par wireless24Nodes.host1.mobility initialElevation 0deg
attr unit deg
par wireless24Nodes.host1.mobility initialBank 0deg
attr unit deg
par wireless24Nodes.host1.mobility initFromDisplayString true
par wireless24Nodes.host1.mobility updateFromDisplayString true
par wireless24Nodes.host1.interfaceTable typename "\"inet.networklayer.common.InterfaceTable\""
par wireless24Nodes.host1.interfaceTable displayAddresses false
par wireless24Nodes.host1.cb typename "\"inet.common.MessageDispatcher\""
par wireless24Nodes.host1.cb displayStringTextFormat "\"processed %p pk (%l)\""
par wireless24Nodes.host1.cb forwardServiceRegistration true
par wireless24Nodes.host1.cb forwardProtocolRegistration true
par wireless24Nodes.host1.bl typename "\"inet.common.MessageDispatcher\""
par wireless24Nodes.host1.bl displayStringTextFormat "\"processed %p pk (%l)\""
par wireless24Nodes.host1.bl forwardServiceRegistration true
par wireless24Nodes.host1.bl forwardProtocolRegistration true
par wireless24Nodes.host1.li typename "\"inet.common.MessageDispatcher\""
par wireless24Nodes.host1.li displayStringTextFormat "\"processed %p pk (%l)\""
par wireless24Nodes.host1.li forwardServiceRegistration true
par wireless24Nodes.host1.li forwardProtocolRegistration true
par wireless24Nodes.host1.lo[0].upperLayerIn.channel typename "\"ned.IdealChannel\""
par wireless24Nodes.host1.lo[0].lo.upperLayerOut.channel typename "\"ned.IdealChannel\""
par wireless24Nodes.host1.lo[0].lo typename "\"inet.linklayer.loopback.Loopback\""
par wireless24Nodes.host1.lo[0].lo interfaceTableModule "\"wireless24Nodes.host1.interfaceTable\""
par wireless24Nodes.host1.lo[0].lo mtu 4470B
attr unit B
scalar wireless24Nodes.host1.lo[0].lo rcvdPkFromHl:count 406
attr interpolationmode none
attr recordingmode count
attr source packetReceivedFromUpper
attr title "packets received from higher layer, count"
scalar wireless24Nodes.host1.lo[0].lo rcvdPkFromHl:sum(packetBytes) 220052
attr interpolationmode none
attr recordingmode sum(packetBytes)
attr source packetReceivedFromUpper
attr title "packets received from higher layer, sum(packetBytes)"
scalar wireless24Nodes.host1.lo[0].lo passedUpPk:count 406
attr interpolationmode none
attr recordingmode count
attr source packetSentToUpper
attr title "packets passed to higher layer, count"
scalar wireless24Nodes.host1.lo[0].lo passedUpPk:sum(packetBytes) 220052
attr interpolationmode none
attr recordingmode sum(packetBytes)
attr source packetSentToUpper
attr title "packets passed to higher layer, sum(packetBytes)"
par wireless24Nodes.host1.lo[0] typename "\"inet.linklayer.loopback.LoopbackInterface\""
par wireless24Nodes.host1.lo[0] displayStringTextFormat "\"%a (%i)\\n%m\""
par wireless24Nodes.host1.lo[0] recordPcap false
par wireless24Nodes.host1.lo[0] numPcapRecorders 0
par wireless24Nodes.host1.lo[0] interfaceTableModule "\"wireless24Nodes.host1.interfaceTable\""
scalar wireless24Nodes.host1.lo[0] packetDropInterfaceDown:count 0
attr interpolationmode none
attr recordingmode count
attr source packetDropReasonIsInterfaceDown(packetDropped)
attr title "packet drops: interface down, count"
scalar wireless24Nodes.host1.lo[0] packetDropInterfaceDown:sum(packetBytes) 0
attr interpolationmode none
attr recordingmode sum(packetBytes)
attr source packetDropReasonIsInterfaceDown(packetDropped)
attr title "packet drops: interface down, sum(packetBytes)"
scalar wireless24Nodes.host1.lo[0] packetDropNoCarrier:count 0
attr interpolationmode none
attr recordingmode count
attr source packetDropReasonIsNoCarrier(packetDropped)
attr title "packet drops: no carrier, count"
scalar wireless24Nodes.host1.lo[0] packetDropNoCarrier:sum(packetBytes) 0
attr interpolationmode none
attr recordingmode sum(packetBytes)
attr source packetDropReasonIsNoCarrier(packetDropped)
attr title "packet drops: no carrier, sum(packetBytes)"
par wireless24Nodes.host1.wlan[0].upperLayerIn.channel typename "\"ned.IdealChannel\""
par wireless24Nodes.host1.wlan[0].radioIn.channel typename "\"ned.IdealChannel\""
par wireless24Nodes.host1.wlan[0].mac.upperLayerOut.channel typename "\"ned.IdealChannel\""
par wireless24Nodes.host1.wlan[0].queue typename "\"inet.queueing.queue.DropTailQueue\""
par wireless24Nodes.host1.wlan[0].queue displayStringTextFormat "\"contains %p pk (%l) pushed %u\\npulled %o removed %r dropped %d\""
par wireless24Nodes.host1.wlan[0].queue packetCapacity 100
par wireless24Nodes.host1.wlan[0].queue dataCapacity -1b
attr unit b
par wireless24Nodes.host1.wlan[0].queue dropperClass "\"inet::queueing::PacketAtCollectionEndDropper\""
par wireless24Nodes.host1.wlan[0].queue comparatorClass "\"\""
par wireless24Nodes.host1.wlan[0].queue bufferModule "\"\""
scalar wireless24Nodes.host1.wlan[0].queue queueLength:last 100
attr autoWarmupFilter false
attr interpolationmode sample-hold
attr recordingmode last
attr source "warmup(atomic(constant0(packetPushEnded) + count(packetPushStarted) - count(packetPulled) - count(packetRemoved) - count(packetDropped)))"
attr title "queue length, last"
attr unit pk
scalar wireless24Nodes.host1.wlan[0].queue queueLength:max 100
attr autoWarmupFilter false
attr interpolationmode sample-hold
attr recordingmode max
attr source "warmup(atomic(constant0(packetPushEnded) + count(packetPushStarted) - count(packetPulled) - count(packetRemoved) - count(packetDropped)))"
attr title "queue length, max"
attr unit pk
scalar wireless24Nodes.host1.wlan[0].queue queueLength:timeavg 61.228893937646
attr autoWarmupFilter false
attr interpolationmode sample-hold
attr recordingmode timeavg
attr source "warmup(atomic(constant0(packetPushEnded) + count(packetPushStarted) - count(packetPulled) - count(packetRemoved) - count(packetDropped)))"
attr title "queue length, timeavg"
attr unit pk
scalar wireless24Nodes.host1.wlan[0].queue queueBitLength:last 260864
attr autoWarmupFilter false
attr interpolationmode sample-hold
attr recordingmode last
attr source "warmup(atomic(constant0(packetPushEnded) + sum(packetLength(packetPushStarted)) - sum(packetLength(packetPulled)) - sum(packetLength(packetRemoved)) - sum(packetLength(packetDropped))))"
attr title "queue bit length, last"
attr unit b
scalar wireless24Nodes.host1.wlan[0].queue queueBitLength:max 403392
attr autoWarmupFilter false
attr interpolationmode sample-hold
attr recordingmode max
attr source "warmup(atomic(constant0(packetPushEnded) + sum(packetLength(packetPushStarted)) - sum(packetLength(packetPulled)) - sum(packetLength(packetRemoved)) - sum(packetLength(packetDropped))))"
attr title "queue bit length, max"
attr unit b
scalar wireless24Nodes.host1.wlan[0].queue queueBitLength:timeavg 157944.90002503
attr autoWarmupFilter false
attr interpolationmode sample-hold
attr recordingmode timeavg
attr source "warmup(atomic(constant0(packetPushEnded) + sum(packetLength(packetPushStarted)) - sum(packetLength(packetPulled)) - sum(packetLength(packetRemoved)) - sum(packetLength(packetDropped))))"
attr title "queue bit length, timeavg"
attr unit b
statistic wireless24Nodes.host1.wlan[0].queue queueingTime:histogram
field count 4441
field mean 0.80971999350922
field stddev 0.75797705842405
field min 0
field max 4.278499282881
field sum 3595.9664911744
field sqrsum 5462.6357055646
attr interpolationmode none
attr recordingmode histogram
attr source queueingTime(packetPulled)
attr title "queueing times"
attr unit s
bin	-inf	0
bin	0	471
bin	0.08	533
bin	0.16	288
bin	0.24	207
bin	0.32	134
bin	0.4	174
bin	0.48	184
bin	0.56	176
bin	0.64	191
bin	0.72	182
bin	0.8	228
bin	0.88	209
bin	0.96	173
bin	1.04	107
bin	1.12	143
bin	1.2	120
bin	1.28	101
bin	1.36	104
bin	1.44	59
bin	1.52	81
bin	1.6	76
bin	1.68	57
bin	1.76	34
bin	1.84	45
bin	1.92	54
bin	2	46
bin	2.08	18
bin	2.16	8
bin	2.24	10
bin	2.32	12
bin	2.4	28
bin	2.48	36
bin	2.56	23
bin	2.64	14
bin	2.72	15
bin	2.8	5
bin	2.88	6
bin	2.96	5
bin	3.04	3
bin	3.12	2
bin	3.2	1
bin	3.28	6
bin	3.36	8
bin	3.44	7
bin	3.52	7
bin	3.6	7
bin	3.68	3
bin	3.76	5
bin	3.84	7
bin	3.92	4
bin	4	13
bin	4.08	6
bin	4.16	4
bin	4.24	1
bin	4.32	0
scalar wireless24Nodes.host1.wlan[0].queue outgoingPackets:count 4441
attr recordingmode count
attr source packetPulled
attr title "outgoing packets, count"
attr unit pk
scalar wireless24Nodes.host1.wlan[0].queue outgoingPacketLengths:sum 12183232
attr interpolationmode none
attr recordingmode sum
attr source packetLength(packetPulled)
attr title "outgoing packet lengths, sum"
attr unit b
statistic wireless24Nodes.host1.wlan[0].queue outgoingPacketLengths:histogram
field count 4441
field mean 2743.3532988066
field stddev 3575.8165823112
field min 288
field max 8320
field sum 12183232
field sqrsum 90194810880
attr interpolationmode none
attr recordingmode histogram
attr source packetLength(packetPulled)
attr title "outgoing packet lengths"
attr unit b
bin	-inf	0
bin	0	0
bin	200	418
bin	400	2673
bin	600	22
bin	800	9
bin	1000	0
bin	1200	0
bin	1400	0
bin	1600	0
bin	1800	0
bin	2000	0
bin	2200	0
bin	2400	0
bin	2600	0
bin	2800	0
bin	3000	0
bin	3200	0
bin	3400	0
bin	3600	0
bin	3800	0
bin	4000	0
bin	4200	0
bin	4400	0
bin	4600	0
bin	4800	0
bin	5000	0
bin	5200	0
bin	5400	0
bin	5600	0
bin	5800	0
bin	6000	0
bin	6200	0
bin	6400	0
bin	6600	0
bin	6800	0
bin	7000	0
bin	7200	0
bin	7400	0
bin	7600	0
bin	7800	0
bin	8000	0
bin	8200	1319
bin	8400	0
bin	8600	0
bin	8800	0
bin	9000	0
bin	9200	0
bin	9400	0
bin	9600	0
bin	9800	0
bin	10000	0
bin	10200	0
bin	10400	0
statistic wireless24Nodes.host1.wlan[0].queue flowQueueingTime:histogram
field count 0
field mean nan
field stddev nan
field min nan
field max nan
field sum 0
field sqrsum 0
attr interpolationmode none
attr recordingmode histogram
attr source queueingTime(demuxFlow(packetPulled))
attr title "flow queueing times"
attr unit s
bin	-inf	0
bin	0	0
bin	1	0
scalar wireless24Nodes.host1.wlan[0].queue incomingPackets:count 6264
attr recordingmode count
attr source packetPushStarted
attr title "incoming packets, count"
attr unit pk
scalar wireless24Nodes.host1.wlan[0].queue incomingPacketLengths:sum 16727904
attr interpolationmode none
attr recordingmode sum
attr source packetLength(packetPushStarted)
attr title "incoming packet lengths, sum"
attr unit b
statistic wireless24Nodes.host1.wlan[0].queue incomingPacketLengths:histogram
field count 6264
field mean 2670.4827586207
field stddev 3542.7590928713
field min 288
field max 8320
field sum 16727904
field sqrsum 123279381504
attr interpolationmode none
attr recordingmode histogram
attr source packetLength(packetPushStarted)
attr title "incoming packet lengths"
attr unit b
bin	-inf	0
bin	0	0
bin	200	631
bin	400	3792
bin	600	27
bin	800	11
bin	1000	0
bin	1200	0
bin	1400	0
bin	1600	0
bin	1800	0
bin	2000	0
bin	2200	0
bin	2400	0
bin	2600	0
bin	2800	0
bin	3000	0
bin	3200	0
bin	3400	0
bin	3600	0
bin	3800	0
bin	4000	0
bin	4200	0
bin	4400	0
bin	4600	0
bin	4800	0
bin	5000	0
bin	5200	0
bin	5400	0
bin	5600	0
bin	5800	0
bin	6000	0
bin	6200	0
bin	6400	0
bin	6600	0
bin	6800	0
bin	7000	0
bin	7200	0
bin	7400	0
bin	7600	0
bin	7800	0
bin	8000	0
bin	8200	1803
bin	8400	0
bin	8600	0
bin	8800	0
bin	9000	0
bin	9200	0
bin	9400	0
bin	9600	0
bin	9800	0
bin	10000	0
bin	10200	0
bin	10400	0
scalar wireless24Nodes.host1.wlan[0].queue droppedPacketsQueueOverflow:count 1723
attr interpolationmode none
attr recordingmode count
attr source packetDropReasonIsQueueOverflow(packetDropped)
attr title "dropped packets: queue overflow, count"
attr unit pk
scalar wireless24Nodes.host1.wlan[0].queue droppedPacketLengthsQueueOverflow:sum 4283808
attr interpolationmode none
attr recordingmode sum
attr source packetLength(packetDropReasonIsQueueOverflow(packetDropped))
attr title "dropped packet lengths: queue overflow, sum"
attr unit b
par wireless24Nodes.host1.wlan[0].mac typename "\"inet.linklayer.acking.AckingMac\""
par wireless24Nodes.host1.wlan[0].mac interfaceTableModule "\"wireless24Nodes.host1.interfaceTable\""
par wireless24Nodes.host1.wlan[0].mac address "\"auto\""
attr mutable ""
par wireless24Nodes.host1.wlan[0].mac bitrate 1e+06bps
attr unit bps
par wireless24Nodes.host1.wlan[0].mac mtu 4470B
attr unit B
par wireless24Nodes.host1.wlan[0].mac headerLength 23B
attr unit B
par wireless24Nodes.host1.wlan[0].mac promiscuous false
par wireless24Nodes.host1.wlan[0].mac fullDuplex true
par wireless24Nodes.host1.wlan[0].mac useAck true
par wireless24Nodes.host1.wlan[0].mac ackTimeout 0.1s
attr unit s
scalar wireless24Nodes.host1.wlan[0].mac rcvdPkFromLl:count 12117
attr interpolationmode none
attr recordingmode count
attr source packetReceivedFromLower
attr title "packets received from lower layer, count"
scalar wireless24Nodes.host1.wlan[0].mac rcvdPkFromLl:sum(packetBytes) 4589335
attr interpolationmode none
attr recordingmode sum(packetBytes)
attr source packetReceivedFromLower
attr title "packets received from lower layer, sum(packetBytes)"
scalar wireless24Nodes.host1.wlan[0].mac sentDownPk:count 4441
attr interpolationmode none
attr recordingmode count
attr source packetSentToLower
attr title "packets sent to lower layer, count"
scalar wireless24Nodes.host1.wlan[0].mac sentDownPk:sum(packetBytes) 1625047
attr interpolationmode none
attr recordingmode sum(packetBytes)
attr source packetSentToLower
attr title "packets sent to lower layer, sum(packetBytes)"
scalar wireless24Nodes.host1.wlan[0].mac rcvdPkFromHl:count 4441
attr interpolationmode none
attr recordingmode count
attr source packetReceivedFromUpper
attr title "packets received from higher layer, count"
scalar wireless24Nodes.host1.wlan[0].mac rcvdPkFromHl:sum(packetBytes) 1522904
attr interpolationmode none
attr recordingmode sum(packetBytes)
attr source packetReceivedFromUpper
attr title "packets received from higher layer, sum(packetBytes)"
scalar wireless24Nodes.host1.wlan[0].mac passedUpPk:count 8537
attr interpolationmode none
attr recordingmode count
attr source packetSentToUpper
attr title "packets passed to higher layer, count"
scalar wireless24Nodes.host1.wlan[0].mac passedUpPk:sum(packetBytes) 1647008
attr interpolationmode none
attr recordingmode sum(packetBytes)
attr source packetSentToUpper
attr title "packets passed to higher layer, sum(packetBytes)"
scalar wireless24Nodes.host1.wlan[0].mac packetDropIncorrectlyReceived:count 0
attr interpolationmode none
attr recordingmode count
attr source packetDropReasonIsIncorrectlyReceived(packetDropped)
attr title "packet drop: incorrectly received, count"
scalar wireless24Nodes.host1.wlan[0].mac packetDropIncorrectlyReceived:sum(packetBytes) 0
attr interpolationmode none
attr recordingmode sum(packetBytes)
attr source packetDropReasonIsIncorrectlyReceived(packetDropped)
attr title "packet drop: incorrectly received, sum(packetBytes)"
scalar wireless24Nodes.host1.wlan[0].mac packetDropInterfaceDown:count 0
attr interpolationmode none
attr recordingmode count
attr source packetDropReasonIsInterfaceDown(packetDropped)
attr title "packet drop: interface down, count"
scalar wireless24Nodes.host1.wlan[0].mac packetDropInterfaceDown:sum(packetBytes) 0
attr interpolationmode none
attr recordingmode sum(packetBytes)
attr source packetDropReasonIsInterfaceDown(packetDropped)
attr title "packet drop: interface down, sum(packetBytes)"
scalar wireless24Nodes.host1.wlan[0].mac packetDropNotAddressedToUs:count 3580
attr interpolationmode none
attr recordingmode count
attr source packetDropReasonIsNotAddressedToUs(packetDropped)
attr title "packet drop: not addressed to us, count"
scalar wireless24Nodes.host1.wlan[0].mac packetDropNotAddressedToUs:sum(packetBytes) 2745976
attr interpolationmode none
attr recordingmode sum(packetBytes)
attr source packetDropReasonIsNotAddressedToUs(packetDropped)
attr title "packet drop: not addressed to us, sum(packetBytes)"
scalar wireless24Nodes.host1.wlan[0].mac linkBroken:count 428
attr interpolationmode none
attr recordingmode count
attr source linkBroken
attr title "link break, count"
par wireless24Nodes.host1.wlan[0].radio.antenna typename "\"inet.physicallayer.wireless.common.antenna.IsotropicAntenna\""
par wireless24Nodes.host1.wlan[0].radio.antenna mobilityModule "\"^.^.^.mobility\""
par wireless24Nodes.host1.wlan[0].radio.antenna numAntennas 1
par wireless24Nodes.host1.wlan[0].radio.transmitter typename "\"inet.physicallayer.wireless.unitdisk.UnitDiskTransmitter\""
par wireless24Nodes.host1.wlan[0].radio.transmitter preambleDuration 0s
attr unit s
par wireless24Nodes.host1.wlan[0].radio.transmitter headerLength 96b
attr unit b
par wireless24Nodes.host1.wlan[0].radio.transmitter bitrate 1e+06bps
attr unit bps
par wireless24Nodes.host1.wlan[0].radio.transmitter communicationRange 2000m
attr unit m
par wireless24Nodes.host1.wlan[0].radio.transmitter interferenceRange 0m
attr unit m
par wireless24Nodes.host1.wlan[0].radio.transmitter detectionRange 0m
attr unit m
par wireless24Nodes.host1.wlan[0].radio.receiver typename "\"inet.physicallayer.wireless.unitdisk.UnitDiskReceiver\""
par wireless24Nodes.host1.wlan[0].radio.receiver ignoreInterference true
par wireless24Nodes.host1.wlan[0].radio typename "\"inet.physicallayer.wireless.unitdisk.UnitDiskRadio\""
par wireless24Nodes.host1.wlan[0].radio radioMediumModule "\"radioMedium\""
par wireless24Nodes.host1.wlan[0].radio energySourceModule "\"\""
par wireless24Nodes.host1.wlan[0].radio initialRadioMode "\"off\""
attr enum off,sleep,receiver,transmitter,transceiver
par wireless24Nodes.host1.wlan[0].radio switchingTimes "\"ms 0 0 0 0 0 0 0 0 0 0 0 0 0 0 0 0 0 0 0 0 0 0 0 0 0\""
par wireless24Nodes.host1.wlan[0].radio sendRawBytes false
par wireless24Nodes.host1.wlan[0].radio separateTransmissionParts false
par wireless24Nodes.host1.wlan[0].radio separateReceptionParts false
par wireless24Nodes.host1.wlan[0].radio displayCommunicationRange true
par wireless24Nodes.host1.wlan[0].radio displayInterferenceRange false
statistic wireless24Nodes.host1.wlan[0].radio minSnir:histogram
field count 0
field mean nan
field stddev nan
field min nan
field max nan
field sum 0
field sqrsum 0
attr recordingmode histogram
attr source minimumSnir(packetSentToUpper)
attr title "Min SNIR"
bin	-inf	0
bin	0	0
bin	1	0
statistic wireless24Nodes.host1.wlan[0].radio packetErrorRate:histogram
field count 12117
field mean 0.35487331847817
field stddev 0.47849466229088
field min 0
field max 1
field sum 4300
field sqrsum 4300
attr recordingmode histogram
attr source packetErrorRate(packetSentToUpper)
attr title "Packet error rate"
bin	-inf	0
bin	0	7817
bin	1	4300
bin	2	0
statistic wireless24Nodes.host1.wlan[0].radio bitErrorRate:histogram
field count 12117
field mean 0.35487331847817
field stddev 0.47849466229088
field min 0
field max 1
field sum 4300
field sqrsum 4300
attr recordingmode histogram
attr source bitErrorRate(packetSentToUpper)
attr title "Bit error rate"
bin	-inf	0
bin	0	7817
bin	1	4300
bin	2	0
statistic wireless24Nodes.host1.wlan[0].radio symbolErrorRate:histogram
field count 12117
field mean 0.35487331847817
field stddev 0.47849466229088
field min 0
field max 1
field sum 4300
field sqrsum 4300
attr recordingmode histogram
attr source symbolErrorRate(packetSentToUpper)
attr title "Symbol error rate"
bin	-inf	0
bin	0	7817
bin	1	4300
bin	2	0
scalar wireless24Nodes.host1.wlan[0].radio transmissionState:count 8883
attr interpolationmode sample-hold
attr recordingmode count
attr source transmissionStateChanged
attr title "Radio transmission state, count"
scalar wireless24Nodes.host1.wlan[0].radio receptionState:count 24380
attr interpolationmode sample-hold
attr recordingmode count
attr source receptionStateChanged
attr title "Radio reception state, count"
scalar wireless24Nodes.host1.wlan[0].radio radioMode:count 3
attr interpolationmode sample-hold
attr recordingmode count
attr source radioModeChanged
attr title "Radio mode, count"
par wireless24Nodes.host1.wlan[0] typename "\"inet.linklayer.acking.AckingWirelessInterface\""
par wireless24Nodes.host1.wlan[0] displayStringTextFormat "\"%a (%i)\\n%m\""
par wireless24Nodes.host1.wlan[0] recordPcap false
par wireless24Nodes.host1.wlan[0] numPcapRecorders 0
par wireless24Nodes.host1.wlan[0] interfaceTableModule "\"wireless24Nodes.host1.interfaceTable\""
par wireless24Nodes.host1.wlan[0] energySourceModule "\"\""
par wireless24Nodes.host1.wlan[0] bitrate 1e+06bps
attr unit bps
scalar wireless24Nodes.host1.wlan[0] packetDropInterfaceDown:count 0
attr interpolationmode none
attr recordingmode count
attr source packetDropReasonIsInterfaceDown(packetDropped)
attr title "packet drops: interface down, count"
scalar wireless24Nodes.host1.wlan[0] packetDropInterfaceDown:sum(packetBytes) 0
attr interpolationmode none
attr recordingmode sum(packetBytes)
attr source packetDropReasonIsInterfaceDown(packetDropped)
attr title "packet drops: interface down, sum(packetBytes)"
scalar wireless24Nodes.host1.wlan[0] packetDropNoCarrier:count 0
attr interpolationmode none
attr recordingmode count
attr source packetDropReasonIsNoCarrier(packetDropped)
attr title "packet drops: no carrier, count"
scalar wireless24Nodes.host1.wlan[0] packetDropNoCarrier:sum(packetBytes) 0
attr interpolationmode none
attr recordingmode sum(packetBytes)
attr source packetDropReasonIsNoCarrier(packetDropped)
attr title "packet drops: no carrier, sum(packetBytes)"
par wireless24Nodes.host1.ipv4.transportIn.channel typename "\"ned.IdealChannel\""
par wireless24Nodes.host1.ipv4.up.out[0].channel typename "\"ned.IdealChannel\""
par wireless24Nodes.host1.ipv4.lp.out[2].channel typename "\"ned.IdealChannel\""
par wireless24Nodes.host1.ipv4.ifIn.channel typename "\"ned.IdealChannel\""
par wireless24Nodes.host1.ipv4.configurator typename "\"inet.networklayer.configurator.ipv4.Ipv4NodeConfigurator\""
par wireless24Nodes.host1.ipv4.configurator interfaceTableModule "\"wireless24Nodes.host1.interfaceTable\""
par wireless24Nodes.host1.ipv4.configurator routingTableModule "\"wireless24Nodes.host1.ipv4.routingTable\""
par wireless24Nodes.host1.ipv4.configurator networkConfiguratorModule "\"configurator\""
par wireless24Nodes.host1.ipv4.configurator configureRoutingTable true
par wireless24Nodes.host1.ipv4.routingTable typename "\"inet.networklayer.ipv4.Ipv4RoutingTable\""
par wireless24Nodes.host1.ipv4.routingTable interfaceTableModule "\"wireless24Nodes.host1.interfaceTable\""
par wireless24Nodes.host1.ipv4.routingTable routerId "\"auto\""
par wireless24Nodes.host1.ipv4.routingTable netmaskRoutes "\"*\""
par wireless24Nodes.host1.ipv4.routingTable forwarding true
par wireless24Nodes.host1.ipv4.routingTable multicastForwarding false
par wireless24Nodes.host1.ipv4.routingTable useAdminDist false
par wireless24Nodes.host1.ipv4.routingTable routingFile "\"\""
par wireless24Nodes.host1.ipv4.natTable typename "\"inet.networklayer.ipv4.Ipv4NatTable\""
par wireless24Nodes.host1.ipv4.natTable networkProtocolModule "\"^.ip\""
par wireless24Nodes.host1.ipv4.natTable config "<config/> at content:1"
par wireless24Nodes.host1.ipv4.up typename "\"inet.common.MessageDispatcher\""
par wireless24Nodes.host1.ipv4.up displayStringTextFormat "\"processed %p pk (%l)\""
par wireless24Nodes.host1.ipv4.up forwardServiceRegistration true
[...]
attr source packetDropReasonIsInterfaceDown(packetDropped)
attr title "packet drops: interface down, sum(packetBytes)"
scalar wireless24Nodes.host24.wlan[0] packetDropNoCarrier:count 0
attr interpolationmode none
attr recordingmode count
attr source packetDropReasonIsNoCarrier(packetDropped)
attr title "packet drops: no carrier, count"
scalar wireless24Nodes.host24.wlan[0] packetDropNoCarrier:sum(packetBytes) 0
attr interpolationmode none
attr recordingmode sum(packetBytes)
attr source packetDropReasonIsNoCarrier(packetDropped)
attr title "packet drops: no carrier, sum(packetBytes)"
par wireless24Nodes.host24.ipv4.transportIn.channel typename "\"ned.IdealChannel\""
par wireless24Nodes.host24.ipv4.up.out[0].channel typename "\"ned.IdealChannel\""
par wireless24Nodes.host24.ipv4.lp.out[2].channel typename "\"ned.IdealChannel\""
par wireless24Nodes.host24.ipv4.ifIn.channel typename "\"ned.IdealChannel\""
par wireless24Nodes.host24.ipv4.configurator typename "\"inet.networklayer.configurator.ipv4.Ipv4NodeConfigurator\""
par wireless24Nodes.host24.ipv4.configurator interfaceTableModule "\"wireless24Nodes.host24.interfaceTable\""
par wireless24Nodes.host24.ipv4.configurator routingTableModule "\"wireless24Nodes.host24.ipv4.routingTable\""
par wireless24Nodes.host24.ipv4.configurator networkConfiguratorModule "\"configurator\""
par wireless24Nodes.host24.ipv4.configurator configureRoutingTable true
par wireless24Nodes.host24.ipv4.routingTable typename "\"inet.networklayer.ipv4.Ipv4RoutingTable\""
par wireless24Nodes.host24.ipv4.routingTable interfaceTableModule "\"wireless24Nodes.host24.interfaceTable\""
par wireless24Nodes.host24.ipv4.routingTable routerId "\"auto\""
par wireless24Nodes.host24.ipv4.routingTable netmaskRoutes "\"*\""
par wireless24Nodes.host24.ipv4.routingTable forwarding true
par wireless24Nodes.host24.ipv4.routingTable multicastForwarding false
par wireless24Nodes.host24.ipv4.routingTable useAdminDist false
par wireless24Nodes.host24.ipv4.routingTable routingFile "\"\""
par wireless24Nodes.host24.ipv4.natTable typename "\"inet.networklayer.ipv4.Ipv4NatTable\""
par wireless24Nodes.host24.ipv4.natTable networkProtocolModule "\"^.ip\""
par wireless24Nodes.host24.ipv4.natTable config "<config/> at content:1"
par wireless24Nodes.host24.ipv4.up typename "\"inet.common.MessageDispatcher\""
par wireless24Nodes.host24.ipv4.up displayStringTextFormat "\"processed %p pk (%l)\""
par wireless24Nodes.host24.ipv4.up forwardServiceRegistration true
par wireless24Nodes.host24.ipv4.up forwardProtocolRegistration true
par wireless24Nodes.host24.ipv4.igmp typename "\"inet.networklayer.ipv4.Igmpv2\""
par wireless24Nodes.host24.ipv4.igmp interfaceTableModule "\"wireless24Nodes.host24.interfaceTable\""
par wireless24Nodes.host24.ipv4.igmp routingTableModule "\"wireless24Nodes.host24.ipv4.routingTable\""
par wireless24Nodes.host24.ipv4.igmp crcMode "\"declared\""
attr enum declared,computed
par wireless24Nodes.host24.ipv4.igmp enabled true
par wireless24Nodes.host24.ipv4.igmp robustnessVariable 2
par wireless24Nodes.host24.ipv4.igmp queryInterval 125s
attr unit s
par wireless24Nodes.host24.ipv4.igmp queryResponseInterval 10s
attr unit s
par wireless24Nodes.host24.ipv4.igmp groupMembershipInterval 260s
attr unit s
par wireless24Nodes.host24.ipv4.igmp otherQuerierPresentInterval 255s
attr unit s
par wireless24Nodes.host24.ipv4.igmp startupQueryInterval 31.25s
attr unit s
par wireless24Nodes.host24.ipv4.igmp startupQueryCount 2
par wireless24Nodes.host24.ipv4.igmp lastMemberQueryInterval 1s
attr unit s
par wireless24Nodes.host24.ipv4.igmp lastMemberQueryCount 2
par wireless24Nodes.host24.ipv4.igmp unsolicitedReportInterval 10s
attr unit s
par wireless24Nodes.host24.ipv4.icmp typename "\"inet.networklayer.ipv4.Icmp\""
par wireless24Nodes.host24.ipv4.icmp interfaceTableModule "\"wireless24Nodes.host24.interfaceTable\""
par wireless24Nodes.host24.ipv4.icmp routingTableModule "\"wireless24Nodes.host24.ipv4.routingTable\""
par wireless24Nodes.host24.ipv4.icmp crcMode "\"declared\""
attr enum declared,computed
attr mutable ""
par wireless24Nodes.host24.ipv4.icmp quoteLength 8B
attr mutable ""
attr unit B
par wireless24Nodes.host24.ipv4.mp typename "\"inet.common.MessageDispatcher\""
par wireless24Nodes.host24.ipv4.mp displayStringTextFormat "\"processed %p pk (%l)\""
par wireless24Nodes.host24.ipv4.mp forwardServiceRegistration true
par wireless24Nodes.host24.ipv4.mp forwardProtocolRegistration true
par wireless24Nodes.host24.ipv4.ip typename "\"inet.networklayer.ipv4.Ipv4\""
par wireless24Nodes.host24.ipv4.ip interfaceTableModule "\"wireless24Nodes.host24.interfaceTable\""
par wireless24Nodes.host24.ipv4.ip routingTableModule "\"wireless24Nodes.host24.ipv4.routingTable\""
par wireless24Nodes.host24.ipv4.ip arpModule "\"wireless24Nodes.host24.ipv4.arp\""
par wireless24Nodes.host24.ipv4.ip icmpModule "\"wireless24Nodes.host24.ipv4.icmp\""
par wireless24Nodes.host24.ipv4.ip crcMode "\"declared\""
attr enum declared,computed
par wireless24Nodes.host24.ipv4.ip timeToLive 32
par wireless24Nodes.host24.ipv4.ip multicastTimeToLive 32
par wireless24Nodes.host24.ipv4.ip fragmentTimeout 60s
attr unit s
par wireless24Nodes.host24.ipv4.ip limitedBroadcast false
par wireless24Nodes.host24.ipv4.ip directBroadcastInterfaces "\"\""
scalar wireless24Nodes.host24.ipv4.ip packetDropAddressResolutionFailed:count 0
attr interpolationmode none
attr recordingmode count
attr source packetDropReasonIsAddressResolutionFailed(packetDropped)
attr title "packet drop: address resolution failed, count"
scalar wireless24Nodes.host24.ipv4.ip packetDropAddressResolutionFailed:sum(packetBytes) 0
attr interpolationmode none
attr recordingmode sum(packetBytes)
attr source packetDropReasonIsAddressResolutionFailed(packetDropped)
attr title "packet drop: address resolution failed, sum(packetBytes)"
scalar wireless24Nodes.host24.ipv4.ip packetDropHopLimitReached:count 0
attr interpolationmode none
attr recordingmode count
attr source packetDropReasonIsHopLimitReached(packetDropped)
attr title "packet drop: hop limit reached, count"
scalar wireless24Nodes.host24.ipv4.ip packetDropHopLimitReached:sum(packetBytes) 0
attr interpolationmode none
attr recordingmode sum(packetBytes)
attr source packetDropReasonIsHopLimitReached(packetDropped)
attr title "packet drop: hop limit reached, sum(packetBytes)"
scalar wireless24Nodes.host24.ipv4.ip packetDropForwardingDisabled:count 0
attr interpolationmode none
attr recordingmode count
attr source packetDropReasonIsForwardingDisabled(packetDropped)
attr title "packet drop: forwarding disabled, count"
scalar wireless24Nodes.host24.ipv4.ip packetDropForwardingDisabled:sum(packetBytes) 0
attr interpolationmode none
attr recordingmode sum(packetBytes)
attr source packetDropReasonIsForwardingDisabled(packetDropped)
attr title "packet drop: forwarding disabled, sum(packetBytes)"
scalar wireless24Nodes.host24.ipv4.ip packetDropNoInterfaceFound:count 0
attr interpolationmode none
attr recordingmode count
attr source packetDropReasonIsNoInterfaceFound(packetDropped)
attr title "packet drop: no interface found, count"
scalar wireless24Nodes.host24.ipv4.ip packetDropNoInterfaceFound:sum(packetBytes) 0
attr interpolationmode none
attr recordingmode sum(packetBytes)
attr source packetDropReasonIsNoInterfaceFound(packetDropped)
attr title "packet drop: no interface found, sum(packetBytes)"
scalar wireless24Nodes.host24.ipv4.ip packetDropNoRouteFound:count 0
attr interpolationmode none
attr recordingmode count
attr source packetDropReasonIsNoRouteFound(packetDropped)
attr title "packet drop: no route found, count"
scalar wireless24Nodes.host24.ipv4.ip packetDropNoRouteFound:sum(packetBytes) 0
attr interpolationmode none
attr recordingmode sum(packetBytes)
attr source packetDropReasonIsNoRouteFound(packetDropped)
attr title "packet drop: no route found, sum(packetBytes)"
scalar wireless24Nodes.host24.ipv4.ip packetDropUndefined:count 0
attr interpolationmode none
attr recordingmode count
attr source packetDropReasonIsUndefined(packetDropped)
attr title "packet drop: undefined, count"
scalar wireless24Nodes.host24.ipv4.ip packetDropUndefined:sum(packetBytes) 0
attr interpolationmode none
attr recordingmode sum(packetBytes)
attr source packetDropReasonIsUndefined(packetDropped)
attr title "packet drop: undefined, sum(packetBytes)"
par wireless24Nodes.host24.ipv4.arp typename "\"inet.networklayer.arp.ipv4.GlobalArp\""
par wireless24Nodes.host24.ipv4.arp interfaceTableModule "\"wireless24Nodes.host24.interfaceTable\""
par wireless24Nodes.host24.ipv4.arp addressType "\"ipv4\""
attr enum ipv4,ipv6,mac,moduleid,modulepath
par wireless24Nodes.host24.ipv4.lp typename "\"inet.common.MessageDispatcher\""
par wireless24Nodes.host24.ipv4.lp displayStringTextFormat "\"processed %p pk (%l)\""
par wireless24Nodes.host24.ipv4.lp forwardServiceRegistration true
par wireless24Nodes.host24.ipv4.lp forwardProtocolRegistration true
par wireless24Nodes.host24.ipv4 typename "\"inet.networklayer.ipv4.Ipv4NetworkLayer\""
par wireless24Nodes.host24.ipv4 forwarding true
par wireless24Nodes.host24.ipv4 multicastForwarding false
par wireless24Nodes.host24.ipv4 interfaceTableModule "\"wireless24Nodes.host24.interfaceTable\""
par wireless24Nodes.host24.ipv4 displayStringTextFormat "\"%i\""
par wireless24Nodes.host24.nl typename "\"inet.common.MessageDispatcher\""
par wireless24Nodes.host24.nl displayStringTextFormat "\"processed %p pk (%l)\""
par wireless24Nodes.host24.nl forwardServiceRegistration true
par wireless24Nodes.host24.nl forwardProtocolRegistration true
par wireless24Nodes.host24.udp typename "\"inet.transportlayer.udp.Udp\""
par wireless24Nodes.host24.udp interfaceTableModule "\"wireless24Nodes.host24.interfaceTable\""
par wireless24Nodes.host24.udp icmpModule "\"^.ipv4.icmp\""
par wireless24Nodes.host24.udp icmpv6Module "\"^.ipv6.icmpv6\""
par wireless24Nodes.host24.udp crcMode "\"declared\""
attr enum disabled,declared,computed
par wireless24Nodes.host24.udp defaultMulticastLoop true
scalar wireless24Nodes.host24.udp packetReceived:count 3756
attr interpolationmode none
attr recordingmode count
attr source packetReceived
attr title "packets received, count"
scalar wireless24Nodes.host24.udp packetReceived:sum(packetBytes) 824920
attr interpolationmode none
attr recordingmode sum(packetBytes)
attr source packetReceived
attr title "packets received, sum(packetBytes)"
scalar wireless24Nodes.host24.udp packetSent:count 8578
attr interpolationmode none
attr recordingmode count
attr source packetSent
attr title "packets sent, count"
scalar wireless24Nodes.host24.udp packetSent:sum(packetBytes) 5707692
attr interpolationmode none
attr recordingmode sum(packetBytes)
attr source packetSent
attr title "packets sent, sum(packetBytes)"
scalar wireless24Nodes.host24.udp passedUpPk:count 3035
attr interpolationmode none
attr recordingmode count
attr source packetSentToUpper
attr title "packets passed up, count"
scalar wireless24Nodes.host24.udp droppedPkWrongPort:count 721
attr interpolationmode none
attr recordingmode count
attr source packetDropReasonIsNoPortFound(packetDropped)
attr title "packets dropped (wrong port), count"
scalar wireless24Nodes.host24.udp droppedPkBadChecksum:count 0
attr interpolationmode none
attr recordingmode count
attr source packetDropReasonIsIncorrectlyReceived(packetDropped)
attr title "packets dropped (checksum error), count"
par wireless24Nodes.host24.tcp typename "\"inet.transportlayer.tcp.Tcp\""
par wireless24Nodes.host24.tcp crcMode "\"declared\""
attr enum declared,computed
par wireless24Nodes.host24.tcp advertisedWindow 7504
par wireless24Nodes.host24.tcp delayedAcksEnabled false
par wireless24Nodes.host24.tcp nagleEnabled true
par wireless24Nodes.host24.tcp limitedTransmitEnabled false
par wireless24Nodes.host24.tcp increasedIWEnabled false
par wireless24Nodes.host24.tcp sackSupport false
par wireless24Nodes.host24.tcp windowScalingSupport false
par wireless24Nodes.host24.tcp windowScalingFactor -1
par wireless24Nodes.host24.tcp timestampSupport false
par wireless24Nodes.host24.tcp mss 536
par wireless24Nodes.host24.tcp msl 120s
attr unit s
par wireless24Nodes.host24.tcp tcpAlgorithmClass "\"TcpReno\""
attr enum TcpVegas,TcpWestwood,TcpNewReno,TcpReno,TcpTahoe,TcpNoCongestionControl
par wireless24Nodes.host24.tcp useDataNotification false
par wireless24Nodes.host24.tcp dupthresh 3
par wireless24Nodes.host24.tcp initialSsthresh 4294967295
par wireless24Nodes.host24.tcp stopOperationExtraTime 0s
attr unit s
par wireless24Nodes.host24.tcp stopOperationTimeout 2s
attr unit s
par wireless24Nodes.host24.tcp ecnWillingness false
par wireless24Nodes.host24.tcp dctcpGamma 0.0625
par wireless24Nodes.host24.tn typename "\"inet.common.MessageDispatcher\""
par wireless24Nodes.host24.tn displayStringTextFormat "\"processed %p pk (%l)\""
par wireless24Nodes.host24.tn forwardServiceRegistration true
par wireless24Nodes.host24.tn forwardProtocolRegistration true
par wireless24Nodes.host24.app[0] typename "\"inet.applications.udpapp.UdpBasicApp\""
par wireless24Nodes.host24.app[0] interfaceTableModule "\"wireless24Nodes.host24.interfaceTable\""
par wireless24Nodes.host24.app[0] clockModule "\"\""
par wireless24Nodes.host24.app[0] localPort -1
par wireless24Nodes.host24.app[0] destAddresses "\"host1 host2 host3 host4 host5 host6 host7 host8 host9 host10 host11 host12 host13 host14 host15 host16 host17 host18 host19 host20 host21 host22 host23 host24\""
par wireless24Nodes.host24.app[0] localAddress "\"\""
par wireless24Nodes.host24.app[0] packetName "\"UDPData\""
par wireless24Nodes.host24.app[0] destPort 5000
par wireless24Nodes.host24.app[0] messageLength 1000B
attr unit B
par wireless24Nodes.host24.app[0] startTime 5s
attr unit s
par wireless24Nodes.host24.app[0] stopTime -1s
attr unit s
par wireless24Nodes.host24.app[0] sendInterval exponential(10ms)
attr unit s
par wireless24Nodes.host24.app[0] timeToLive -1
par wireless24Nodes.host24.app[0] dontFragment false
par wireless24Nodes.host24.app[0] dscp -1
par wireless24Nodes.host24.app[0] tos -1
par wireless24Nodes.host24.app[0] multicastInterface "\"\""
par wireless24Nodes.host24.app[0] receiveBroadcast false
par wireless24Nodes.host24.app[0] joinLocalMulticastGroups false
par wireless24Nodes.host24.app[0] stopOperationExtraTime -1s
attr unit s
par wireless24Nodes.host24.app[0] stopOperationTimeout 2s
attr unit s
scalar wireless24Nodes.host24.app[0] "packets sent" 5565
scalar wireless24Nodes.host24.app[0] "packets received" 0
scalar wireless24Nodes.host24.app[0] packetReceived:count 0
attr interpolationmode none
attr recordingmode count
attr source packetReceived
attr title "packets received, count"
scalar wireless24Nodes.host24.app[0] packetReceived:sum(packetBytes) 0
attr interpolationmode none
attr recordingmode sum(packetBytes)
attr source packetReceived
attr title "packets received, sum(packetBytes)"
statistic wireless24Nodes.host24.app[0] rcvdPkLifetime:stats
field count 0
field mean nan
field stddev nan
field min nan
field max nan
field sum 0
field sqrsum 0
attr interpolationmode none
attr recordingmode stats
attr source dataAge(packetReceived)
attr title "received packet lifetime"
attr unit s
scalar wireless24Nodes.host24.app[0] packetSent:count 5565
attr interpolationmode none
attr recordingmode count
attr source packetSent
attr title "packets sent, count"
scalar wireless24Nodes.host24.app[0] packetSent:sum(packetBytes) 5565000
attr interpolationmode none
attr recordingmode sum(packetBytes)
attr source packetSent
attr title "packets sent, sum(packetBytes)"
par wireless24Nodes.host24.at typename "\"inet.common.MessageDispatcher\""
par wireless24Nodes.host24.at displayStringTextFormat "\"processed %p pk (%l)\""
par wireless24Nodes.host24.at forwardServiceRegistration true
par wireless24Nodes.host24.at forwardProtocolRegistration true
par wireless24Nodes.host24.aodv typename "\"inet.routing.aodv.Aodv\""
par wireless24Nodes.host24.aodv routingTableModule "\"^.ipv4.routingTable\""
par wireless24Nodes.host24.aodv interfaceTableModule "\"wireless24Nodes.host24.interfaceTable\""
par wireless24Nodes.host24.aodv networkProtocolModule "\"^.ipv4.ip\""
par wireless24Nodes.host24.aodv askGratuitousRREP false
par wireless24Nodes.host24.aodv useHelloMessages true
par wireless24Nodes.host24.aodv useLocalRepair false
par wireless24Nodes.host24.aodv destinationOnlyFlag false
par wireless24Nodes.host24.aodv udpPort 654
par wireless24Nodes.host24.aodv interface "\"wlan0\""
par wireless24Nodes.host24.aodv maxPeriodicJitter 0.75s
attr unit s
par wireless24Nodes.host24.aodv periodicJitter "uniform(0s, maxPeriodicJitter)"
attr unit s
par wireless24Nodes.host24.aodv jitter "uniform(0ms, maxJitter)"
attr unit s
par wireless24Nodes.host24.aodv helloInterval 3s
attr unit s
par wireless24Nodes.host24.aodv allowedHelloLoss 2
par wireless24Nodes.host24.aodv activeRouteTimeout 7s
attr unit s
par wireless24Nodes.host24.aodv netDiameter 35
par wireless24Nodes.host24.aodv nodeTraversalTime 0.04s
attr unit s
par wireless24Nodes.host24.aodv rerrRatelimit 10
par wireless24Nodes.host24.aodv rreqRetries 0
par wireless24Nodes.host24.aodv rreqRatelimit 10
par wireless24Nodes.host24.aodv timeoutBuffer 2
par wireless24Nodes.host24.aodv ttlStart 24
par wireless24Nodes.host24.aodv ttlIncrement 2
par wireless24Nodes.host24.aodv ttlThreshold 7
par wireless24Nodes.host24.aodv localAddTTL 2
par wireless24Nodes.host24.aodv myRouteTimeout 14s
attr unit s
par wireless24Nodes.host24.aodv deletePeriod 35s
attr unit s
par wireless24Nodes.host24.aodv blacklistTimeout 0s
attr unit s
par wireless24Nodes.host24.aodv netTraversalTime 2.8s
attr unit s
par wireless24Nodes.host24.aodv nextHopWait 0.05s
attr unit s
par wireless24Nodes.host24.aodv pathDiscoveryTime 5.6s
attr unit s
par wireless24Nodes.host24.aodv outputInterface "\"wlan0\""
par wireless24Nodes.host24.aodv interfaces "\"*\""
par wireless24Nodes.host24.aodv beaconInterval 3s
attr unit s
par wireless24Nodes.host24.aodv maxJitter 1.5s
attr unit s
par wireless24Nodes.host24.aodv neighborValidityInterval 13.5s
attr unit s
par wireless24Nodes.host24.aodv positionByteLength 8B
attr unit B
par wireless24Nodes.host24.aodv displayBubbles false
statistic wireless24Nodes.host24.aodv Data_packets_Sent:stats
field count 4997
field mean 2499
field stddev 1442.6539779171
field min 1
field max 4997
field sum 12487503
field sqrsum 41604197495
attr interpolationmode none
attr recordingmode stats
attr source DataPckSent
attr title "Data packets"
statistic wireless24Nodes.host24.aodv Control_packets:stats
field count 3055
field mean 1528
field stddev 882.0468619448
field min 1
field max 3055
field sum 4668040
field sqrsum 9508797480
attr interpolationmode none
attr recordingmode stats
attr source ctrlPckCount
attr title "Control packets"
par wireless24Nodes.host24 typename "\"inet.node.aodv.AodvRouter\""
par wireless24Nodes.host24 hasStatus false
par wireless24Nodes.host24 osgModel "\"\""
par wireless24Nodes.host24 osgModelColor "\"\""
par wireless24Nodes.host24 canvasImage "\"\""
par wireless24Nodes.host24 canvasImageColor "\"\""
par wireless24Nodes.host24 recordPcap false
par wireless24Nodes.host24 numPcapRecorders 0
par wireless24Nodes.host24 numLoInterfaces 1
par wireless24Nodes.host24 numWlanInterfaces 1
par wireless24Nodes.host24 numEthInterfaces 0
par wireless24Nodes.host24 numPppInterfaces 0
par wireless24Nodes.host24 numTunInterfaces 0
par wireless24Nodes.host24 numVirtInterfaces 0
par wireless24Nodes.host24 fcsMode "\"declared\""
attr enum declared,computed
par wireless24Nodes.host24 hasIpv4 true
par wireless24Nodes.host24 hasIpv6 false
par wireless24Nodes.host24 hasGn false
par wireless24Nodes.host24 forwarding true
par wireless24Nodes.host24 multicastForwarding false
par wireless24Nodes.host24 hasUdp true
par wireless24Nodes.host24 hasTcp true
par wireless24Nodes.host24 hasSctp false
par wireless24Nodes.host24 numApps 1
par wireless24Nodes typename "\"tacsim.simulations.TacSim.wireless24Nodes\""

