version 3
run General-0-20240528-15:05:47-24500
attr configname General
attr datetime 20240528-15:05:47
attr datetimef 20240528-150547
attr experiment General
attr inifile node20.ini
attr iterationvars ""
attr iterationvarsd ""
attr iterationvarsf ""
attr measurement ""
attr network wireless20Nodes
attr processid 24500
attr repetition 0
attr replication #0
attr resultdir results
attr runnumber 0
attr seedset 0
config image-path ../../../inet4.5/images
config description "Two adhoc host communicating via AODV, in order to debug"
config network wireless20Nodes
config sim-time-limit 60s
config *.host*.ipv4.arp.typename GlobalArp
config *.host14.numApps 1
config *.host14.app[0].typename UdpBasicApp
config *.host14.app[0].destAddresses "\"host1 host2 host3 host4 host5 host6 host7 host8 host9 host10 host11 host12 host13 host15 host16 host17 host18 host19 host20 host21 host22 host23 host24\""
config *.host14.app[0].destPort 5000
config *.host14.app[0].messageLength 1000B
config *.host14.app[0].sendInterval exponential(10ms)
config *.host14.app[0].packetName "\"UDPData\""
config *.host14.app[0].startTime 5s
config **.wlan[*].typename AckingWirelessInterface
config **.wlan[*].bitrate 2Mbps
config **.wlan[*].mac.headerLength 23B
config **.wlan[*].radio.typename UnitDiskRadio
config **.wlan[*].radio.transmitter.headerLength 96b
config **.wlan[*].radio.transmitter.interferenceRange 0m
config **.wlan[*].radio.transmitter.detectionRange 0m
config **.wlan[*].radio.receiver.ignoreInterference true
config **.wlan[*].radio.transmitter.communicationRange 2000m
config *.host*.wlan[0].radio.displayCommunicationRange true
config *.host1.numPcapRecorders 1
config *.host1.pcapRecorder[*].pcapFile "\"results/host1.pcap\""
config *.host20.numPcapRecorders 1
config *.host20.pcapRecorder[*].pcapFile "\"results/host20.pcap\""
config *.host11.numPcapRecorders 1
config *.host11.pcapRecorder[*].pcapFile "\"results/host11.pcap\""
config **.pcapRecorder[*].verbose true
config **.pcapRecorder[*].alwaysFlush true
config **.host*.Control_packets.result-recording-modes +vector,+histogram
config **.host*.Data_packets_Sent.result-recording-modes +vector,+histogram
config **.constraintAreaMinX 0m
config **.constraintAreaMaxX 10000m
config **.constraintAreaMinY 0m
config **.constraintAreaMaxY 10000m
config **.constraintAreaMinZ 0m
config **.constraintAreaMaxZ 0m
config **.aodv.rreqRetries 0
config **.aodv.ttlStart 24

par wireless20Nodes.visualizer.sceneVisualizer typename "\"inet.visualizer.canvas.scene.SceneCanvasVisualizer\""
par wireless20Nodes.visualizer.sceneVisualizer visualizationTargetModule "\"^.^\""
par wireless20Nodes.visualizer.sceneVisualizer visualizationSubjectModule "\"^.^\""
par wireless20Nodes.visualizer.sceneVisualizer tags "\"\""
par wireless20Nodes.visualizer.sceneVisualizer physicalEnvironmentModule "\"physicalEnvironment\""
par wireless20Nodes.visualizer.sceneVisualizer networkNodeVisualizerModule "\"^.networkNodeVisualizer\""
par wireless20Nodes.visualizer.sceneVisualizer axisLength "nan m"
attr mutable ""
attr unit m
par wireless20Nodes.visualizer.sceneVisualizer animationSpeed 0
par wireless20Nodes.visualizer.sceneVisualizer sceneMinX "nan m"
attr unit m
par wireless20Nodes.visualizer.sceneVisualizer sceneMinY "nan m"
attr unit m
par wireless20Nodes.visualizer.sceneVisualizer sceneMinZ "nan m"
attr unit m
par wireless20Nodes.visualizer.sceneVisualizer sceneMaxX "nan m"
attr unit m
par wireless20Nodes.visualizer.sceneVisualizer sceneMaxY "nan m"
attr unit m
par wireless20Nodes.visualizer.sceneVisualizer sceneMaxZ "nan m"
attr unit m
par wireless20Nodes.visualizer.sceneVisualizer zIndex 0
par wireless20Nodes.visualizer.sceneVisualizer viewAngle "\"x right y down z out\""
attr mutable ""
par wireless20Nodes.visualizer.sceneVisualizer viewScale "\"1 1\""
attr mutable ""
par wireless20Nodes.visualizer.sceneVisualizer viewTranslation "\"0 0\""
attr mutable ""
par wireless20Nodes.visualizer.sceneVisualizer descriptionFigure "\"\""
par wireless20Nodes.visualizer.physicalEnvironmentVisualizer typename "\"inet.visualizer.canvas.environment.PhysicalEnvironmentCanvasVisualizer\""
par wireless20Nodes.visualizer.physicalEnvironmentVisualizer visualizationTargetModule "\"^.^\""
par wireless20Nodes.visualizer.physicalEnvironmentVisualizer visualizationSubjectModule "\"^.^\""
par wireless20Nodes.visualizer.physicalEnvironmentVisualizer tags "\"\""
par wireless20Nodes.visualizer.physicalEnvironmentVisualizer physicalEnvironmentModule "\"physicalEnvironment\""
par wireless20Nodes.visualizer.physicalEnvironmentVisualizer displayObjects true
par wireless20Nodes.visualizer.physicalEnvironmentVisualizer zIndex 0
par wireless20Nodes.visualizer.networkNodeVisualizer typename "\"inet.visualizer.canvas.scene.NetworkNodeCanvasVisualizer\""
par wireless20Nodes.visualizer.networkNodeVisualizer visualizationTargetModule "\"^.^\""
par wireless20Nodes.visualizer.networkNodeVisualizer visualizationSubjectModule "\"^.^\""
par wireless20Nodes.visualizer.networkNodeVisualizer tags "\"\""
par wireless20Nodes.visualizer.networkNodeVisualizer nodeFilter "\"*\""
attr mutable ""
par wireless20Nodes.visualizer.networkNodeVisualizer annotationSpacing 4
par wireless20Nodes.visualizer.networkNodeVisualizer placementPenalty 10
par wireless20Nodes.visualizer.networkNodeVisualizer zIndex 0
par wireless20Nodes.visualizer.networkConnectionVisualizer typename "\"inet.visualizer.canvas.scene.NetworkConnectionCanvasVisualizer\""
par wireless20Nodes.visualizer.networkConnectionVisualizer visualizationTargetModule "\"^.^\""
par wireless20Nodes.visualizer.networkConnectionVisualizer visualizationSubjectModule "\"^.^\""
par wireless20Nodes.visualizer.networkConnectionVisualizer tags "\"\""
par wireless20Nodes.visualizer.networkConnectionVisualizer displayNetworkConnections true
par wireless20Nodes.visualizer.networkConnectionVisualizer nodeFilter "\"\""
attr mutable ""
par wireless20Nodes.visualizer.networkConnectionVisualizer lineColor "\"black\""
par wireless20Nodes.visualizer.networkConnectionVisualizer lineStyle "\"solid\""
par wireless20Nodes.visualizer.networkConnectionVisualizer lineWidth 1
par wireless20Nodes.visualizer.networkConnectionVisualizer zIndex 0
par wireless20Nodes.visualizer.mobilityVisualizer typename "\"inet.visualizer.canvas.mobility.MobilityCanvasVisualizer\""
par wireless20Nodes.visualizer.mobilityVisualizer visualizationTargetModule "\"^.^\""
par wireless20Nodes.visualizer.mobilityVisualizer visualizationSubjectModule "\"^.^\""
par wireless20Nodes.visualizer.mobilityVisualizer tags "\"\""
par wireless20Nodes.visualizer.mobilityVisualizer networkNodeVisualizerModule "\"^.networkNodeVisualizer\""
par wireless20Nodes.visualizer.mobilityVisualizer displayMobility true
par wireless20Nodes.visualizer.mobilityVisualizer animationSpeed 0
par wireless20Nodes.visualizer.mobilityVisualizer moduleFilter "\"**.mobility\""
attr mutable ""
par wireless20Nodes.visualizer.mobilityVisualizer displayPositions false
par wireless20Nodes.visualizer.mobilityVisualizer positionCircleRadius 4
par wireless20Nodes.visualizer.mobilityVisualizer positionCircleLineWidth 1
par wireless20Nodes.visualizer.mobilityVisualizer positionCircleLineColor "\"dark\""
attr enum light,dark
par wireless20Nodes.visualizer.mobilityVisualizer positionCircleFillColor "\"dark\""
attr enum light,dark
par wireless20Nodes.visualizer.mobilityVisualizer displayOrientations false
par wireless20Nodes.visualizer.mobilityVisualizer orientationPieRadius 32
par wireless20Nodes.visualizer.mobilityVisualizer orientationPieSize 0.2
par wireless20Nodes.visualizer.mobilityVisualizer orientationPieOpacity 0.25
par wireless20Nodes.visualizer.mobilityVisualizer orientationLineColor "\"black\""
par wireless20Nodes.visualizer.mobilityVisualizer orientationLineStyle "\"solid\""
par wireless20Nodes.visualizer.mobilityVisualizer orientationLineWidth 1
par wireless20Nodes.visualizer.mobilityVisualizer orientationFillColor "\"blue\""
par wireless20Nodes.visualizer.mobilityVisualizer displayVelocities false
par wireless20Nodes.visualizer.mobilityVisualizer velocityArrowScale 1
par wireless20Nodes.visualizer.mobilityVisualizer velocityLineColor "\"black\""
par wireless20Nodes.visualizer.mobilityVisualizer velocityLineStyle "\"solid\""
par wireless20Nodes.visualizer.mobilityVisualizer velocityLineWidth 1
par wireless20Nodes.visualizer.mobilityVisualizer displayMovementTrails false
par wireless20Nodes.visualizer.mobilityVisualizer movementTrailLineColor "\"dark\""
attr enum light,dark
par wireless20Nodes.visualizer.mobilityVisualizer movementTrailLineStyle "\"solid\""
par wireless20Nodes.visualizer.mobilityVisualizer movementTrailLineWidth 1
par wireless20Nodes.visualizer.mobilityVisualizer trailLength 100
par wireless20Nodes.visualizer.mobilityVisualizer zIndex 0
par wireless20Nodes.visualizer.statisticVisualizer typename "\"inet.visualizer.canvas.common.StatisticCanvasVisualizer\""
par wireless20Nodes.visualizer.statisticVisualizer visualizationTargetModule "\"^.^\""
par wireless20Nodes.visualizer.statisticVisualizer visualizationSubjectModule "\"^.^\""
par wireless20Nodes.visualizer.statisticVisualizer tags "\"\""
par wireless20Nodes.visualizer.statisticVisualizer networkNodeVisualizerModule "\"^.networkNodeVisualizer\""
par wireless20Nodes.visualizer.statisticVisualizer displayStatistics true
par wireless20Nodes.visualizer.statisticVisualizer signalName "\"\""
par wireless20Nodes.visualizer.statisticVisualizer statisticName "\"\""
par wireless20Nodes.visualizer.statisticVisualizer statisticUnit "\"\""
par wireless20Nodes.visualizer.statisticVisualizer statisticExpression "\"\""
par wireless20Nodes.visualizer.statisticVisualizer sourceFilter "\"**\""
attr mutable ""
par wireless20Nodes.visualizer.statisticVisualizer format "\"%n: %v %u\""
attr mutable ""
par wireless20Nodes.visualizer.statisticVisualizer unit "\"\""
par wireless20Nodes.visualizer.statisticVisualizer font "\"<default>\""
par wireless20Nodes.visualizer.statisticVisualizer textColor "\"black\""
par wireless20Nodes.visualizer.statisticVisualizer backgroundColor "\"white\""
par wireless20Nodes.visualizer.statisticVisualizer opacity 1
par wireless20Nodes.visualizer.statisticVisualizer placementHint "\"top\""
par wireless20Nodes.visualizer.statisticVisualizer placementPriority 0
par wireless20Nodes.visualizer.statisticVisualizer zIndex 10
par wireless20Nodes.visualizer.statisticVisualizer propertyName "\"\""
par wireless20Nodes.visualizer.statisticVisualizer propertyIndex "\"\""
par wireless20Nodes.visualizer.infoVisualizer typename "\"inet.visualizer.canvas.common.InfoCanvasVisualizer\""
par wireless20Nodes.visualizer.infoVisualizer visualizationTargetModule "\"^.^\""
par wireless20Nodes.visualizer.infoVisualizer visualizationSubjectModule "\"^.^\""
par wireless20Nodes.visualizer.infoVisualizer tags "\"\""
par wireless20Nodes.visualizer.infoVisualizer networkNodeVisualizerModule "\"^.networkNodeVisualizer\""
par wireless20Nodes.visualizer.infoVisualizer displayInfos true
par wireless20Nodes.visualizer.infoVisualizer modules "\"\""
attr mutable ""
par wireless20Nodes.visualizer.infoVisualizer format "\"%t\""
attr mutable ""
par wireless20Nodes.visualizer.infoVisualizer font "\"<default>\""
par wireless20Nodes.visualizer.infoVisualizer textColor "\"black\""
par wireless20Nodes.visualizer.infoVisualizer backgroundColor "\"white\""
par wireless20Nodes.visualizer.infoVisualizer opacity 1
par wireless20Nodes.visualizer.infoVisualizer placementHint "\"top\""
par wireless20Nodes.visualizer.infoVisualizer placementPriority 0
par wireless20Nodes.visualizer.infoVisualizer zIndex 10
par wireless20Nodes.visualizer.energyStorageVisualizer typename "\"inet.visualizer.canvas.power.EnergyStorageCanvasVisualizer\""
par wireless20Nodes.visualizer.energyStorageVisualizer visualizationTargetModule "\"^.^\""
par wireless20Nodes.visualizer.energyStorageVisualizer visualizationSubjectModule "\"^.^\""
par wireless20Nodes.visualizer.energyStorageVisualizer tags "\"\""
par wireless20Nodes.visualizer.energyStorageVisualizer networkNodeVisualizerModule "\"^.networkNodeVisualizer\""
par wireless20Nodes.visualizer.energyStorageVisualizer displayEnergyStorages false
par wireless20Nodes.visualizer.energyStorageVisualizer energyStorageFilter "\"**\""
par wireless20Nodes.visualizer.energyStorageVisualizer color "\"green\""
par wireless20Nodes.visualizer.energyStorageVisualizer width 8
par wireless20Nodes.visualizer.energyStorageVisualizer height 24
par wireless20Nodes.visualizer.energyStorageVisualizer spacing 2
par wireless20Nodes.visualizer.energyStorageVisualizer placementHint "\"right\""
par wireless20Nodes.visualizer.energyStorageVisualizer placementPriority 0
par wireless20Nodes.visualizer.energyStorageVisualizer zIndex 10
par wireless20Nodes.visualizer.mediumVisualizer typename "\"inet.visualizer.canvas.physicallayer.MediumCanvasVisualizer\""
par wireless20Nodes.visualizer.mediumVisualizer visualizationTargetModule "\"^.^\""
par wireless20Nodes.visualizer.mediumVisualizer visualizationSubjectModule "\"^.^\""
par wireless20Nodes.visualizer.mediumVisualizer tags "\"\""
par wireless20Nodes.visualizer.mediumVisualizer mediumModule "\"radioMedium\""
par wireless20Nodes.visualizer.mediumVisualizer networkNodeVisualizerModule "\"^.networkNodeVisualizer\""
par wireless20Nodes.visualizer.mediumVisualizer nodeFilter "\"*\""
attr mutable ""
par wireless20Nodes.visualizer.mediumVisualizer interfaceFilter "\"*\""
attr mutable ""
par wireless20Nodes.visualizer.mediumVisualizer packetFilter "(omnetpp::cValueHolder)holder: \"*\""
attr mutable ""
par wireless20Nodes.visualizer.mediumVisualizer displaySignals false
par wireless20Nodes.visualizer.mediumVisualizer signalColor "\"dark\""
attr enum light,dark
par wireless20Nodes.visualizer.mediumVisualizer signalPropagationAnimationSpeed "nan "
attr mutable ""
par wireless20Nodes.visualizer.mediumVisualizer signalPropagationAnimationTime 1s
attr unit s
par wireless20Nodes.visualizer.mediumVisualizer signalPropagationAdditionalTime 0s
attr unit s
par wireless20Nodes.visualizer.mediumVisualizer signalTransmissionAnimationSpeed "nan "
attr mutable ""
par wireless20Nodes.visualizer.mediumVisualizer signalTransmissionAnimationTime 1s
attr unit s
par wireless20Nodes.visualizer.mediumVisualizer signalAnimationSpeedChangeTimeMode "\"realTime\""
attr enum realTime,animationTime,simulationTime
par wireless20Nodes.visualizer.mediumVisualizer signalAnimationSpeedChangeTime 1s
attr unit s
par wireless20Nodes.visualizer.mediumVisualizer displaySignalDepartures false
par wireless20Nodes.visualizer.mediumVisualizer signalDepartureImage "\"misc/signal_departure.png\""
par wireless20Nodes.visualizer.mediumVisualizer signalDeparturePlacementHint "\"topCenter\""
par wireless20Nodes.visualizer.mediumVisualizer signalDeparturePlacementPriority 1
par wireless20Nodes.visualizer.mediumVisualizer displaySignalArrivals false
par wireless20Nodes.visualizer.mediumVisualizer signalArrivalImage "\"misc/signal_arrival.png\""
par wireless20Nodes.visualizer.mediumVisualizer signalArrivalPlacementHint "\"topCenter\""
par wireless20Nodes.visualizer.mediumVisualizer signalArrivalPlacementPriority -1
par wireless20Nodes.visualizer.mediumVisualizer displayCommunicationRanges false
par wireless20Nodes.visualizer.mediumVisualizer communicationRangeLineColor "\"blue\""
par wireless20Nodes.visualizer.mediumVisualizer communicationRangeLineStyle "\"solid\""
par wireless20Nodes.visualizer.mediumVisualizer communicationRangeLineWidth 1
par wireless20Nodes.visualizer.mediumVisualizer displayInterferenceRanges false
par wireless20Nodes.visualizer.mediumVisualizer interferenceRangeLineColor "\"gray\""
par wireless20Nodes.visualizer.mediumVisualizer interferenceRangeLineStyle "\"solid\""
par wireless20Nodes.visualizer.mediumVisualizer interferenceRangeLineWidth 1
par wireless20Nodes.visualizer.mediumVisualizer autoPowerAxis true
par wireless20Nodes.visualizer.mediumVisualizer signalMinPower "inf dBmW"
attr unit dBmW
par wireless20Nodes.visualizer.mediumVisualizer signalMaxPower 0dBmW
attr unit dBmW
par wireless20Nodes.visualizer.mediumVisualizer signalMinPowerDensity "inf dBmWpMHz"
attr unit dBmWpMHz
par wireless20Nodes.visualizer.mediumVisualizer signalMaxPowerDensity "-inf dBmWpMHz"
attr unit dBmWpMHz
par wireless20Nodes.visualizer.mediumVisualizer autoTimeAxis true
par wireless20Nodes.visualizer.mediumVisualizer signalMinTime 0s
attr unit s
par wireless20Nodes.visualizer.mediumVisualizer signalMaxTime 0s
attr unit s
par wireless20Nodes.visualizer.mediumVisualizer autoFrequencyAxis true
par wireless20Nodes.visualizer.mediumVisualizer signalMinFrequency "inf Hz"
attr unit Hz
par wireless20Nodes.visualizer.mediumVisualizer signalMaxFrequency "-inf Hz"
attr unit Hz
par wireless20Nodes.visualizer.mediumVisualizer displayMainPowerDensityMap false
par wireless20Nodes.visualizer.mediumVisualizer mainPowerDensityMapPixmapDensity 1
par wireless20Nodes.visualizer.mediumVisualizer mainPowerDensityMapMinX 0
par wireless20Nodes.visualizer.mediumVisualizer mainPowerDensityMapMaxX "nan "
par wireless20Nodes.visualizer.mediumVisualizer mainPowerDensityMapMinY 0
par wireless20Nodes.visualizer.mediumVisualizer mainPowerDensityMapMaxY "nan "
par wireless20Nodes.visualizer.mediumVisualizer mainPowerDensityMapZ 0
par wireless20Nodes.visualizer.mediumVisualizer mainPowerDensityMapFigureXTickCount 3
par wireless20Nodes.visualizer.mediumVisualizer mainPowerDensityMapFigureYTickCount 3
par wireless20Nodes.visualizer.mediumVisualizer displayPowerDensityMaps false
par wireless20Nodes.visualizer.mediumVisualizer powerDensityMapMode "\"auto\""
attr enum total,signal,auto
par wireless20Nodes.visualizer.mediumVisualizer powerDensityMapPixelMode "\"mean\""
attr enum sample,partition,mean
par wireless20Nodes.visualizer.mediumVisualizer powerDensityMapApproximationSize 10
par wireless20Nodes.visualizer.mediumVisualizer powerDensityMapCenterFrequency "nan Hz"
attr mutable ""
attr unit Hz
par wireless20Nodes.visualizer.mediumVisualizer powerDensityMapBandwidth 0Hz
attr mutable ""
attr unit Hz
par wireless20Nodes.visualizer.mediumVisualizer powerDensityMapFigureWidth 200
par wireless20Nodes.visualizer.mediumVisualizer powerDensityMapFigureHeight 120
par wireless20Nodes.visualizer.mediumVisualizer powerDensityMapPixmapWidth 200
par wireless20Nodes.visualizer.mediumVisualizer powerDensityMapPixmapHeight 120
par wireless20Nodes.visualizer.mediumVisualizer powerDensityMapZ 0
par wireless20Nodes.visualizer.mediumVisualizer powerDensityMapFigureXTickCount 3
par wireless20Nodes.visualizer.mediumVisualizer powerDensityMapFigureYTickCount 3
par wireless20Nodes.visualizer.mediumVisualizer displaySpectrums false
par wireless20Nodes.visualizer.mediumVisualizer spectrumMode "\"auto\""
attr enum total,signal,auto
par wireless20Nodes.visualizer.mediumVisualizer spectrumFigureWidth 200
par wireless20Nodes.visualizer.mediumVisualizer spectrumFigureHeight 120
par wireless20Nodes.visualizer.mediumVisualizer spectrumFigureXTickCount 3
par wireless20Nodes.visualizer.mediumVisualizer spectrumFigureYTickCount 5
par wireless20Nodes.visualizer.mediumVisualizer spectrumFigureInterpolationSize 5
par wireless20Nodes.visualizer.mediumVisualizer spectrumPlacementHint "\"bottomCenter\""
par wireless20Nodes.visualizer.mediumVisualizer spectrumPlacementPriority -1
par wireless20Nodes.visualizer.mediumVisualizer displaySpectrograms false
par wireless20Nodes.visualizer.mediumVisualizer spectrogramMode "\"auto\""
attr enum total,signal,auto
par wireless20Nodes.visualizer.mediumVisualizer spectrogramPixelMode "\"mean\""
attr enum sample,partition,mean
par wireless20Nodes.visualizer.mediumVisualizer spectrogramFigureWidth 200
par wireless20Nodes.visualizer.mediumVisualizer spectrogramFigureHeight 120
par wireless20Nodes.visualizer.mediumVisualizer spectrogramPixmapWidth 200
par wireless20Nodes.visualizer.mediumVisualizer spectrogramPixmapHeight 120
par wireless20Nodes.visualizer.mediumVisualizer spectrogramFigureXTickCount 3
par wireless20Nodes.visualizer.mediumVisualizer spectrogramFigureYTickCount 5
par wireless20Nodes.visualizer.mediumVisualizer spectrogramPlacementHint "\"bottomCenter\""
par wireless20Nodes.visualizer.mediumVisualizer spectrogramPlacementPriority -1
par wireless20Nodes.visualizer.mediumVisualizer zIndex 0
par wireless20Nodes.visualizer.mediumVisualizer signalShape "\"ring\""
attr enum ring,sphere
par wireless20Nodes.visualizer.mediumVisualizer signalOpacity 0.5
par wireless20Nodes.visualizer.mediumVisualizer signalRingCount 20
par wireless20Nodes.visualizer.mediumVisualizer signalRingSize 50m
attr unit m
par wireless20Nodes.visualizer.mediumVisualizer signalFadingDistance 50m
attr unit m
par wireless20Nodes.visualizer.mediumVisualizer signalFadingFactor 1.2
par wireless20Nodes.visualizer.mediumVisualizer signalWaveCount 20
par wireless20Nodes.visualizer.mediumVisualizer signalWaveLength 50m
attr unit m
par wireless20Nodes.visualizer.mediumVisualizer signalWaveWidth 10m
attr unit m
par wireless20Nodes.visualizer.mediumVisualizer signalWaveFadingAnimationSpeedFactor 1
par wireless20Nodes.visualizer.mediumVisualizer displayCommunicationHeat false
par wireless20Nodes.visualizer.obstacleLossVisualizer typename "\"inet.visualizer.canvas.physicallayer.TracingObstacleLossCanvasVisualizer\""
par wireless20Nodes.visualizer.obstacleLossVisualizer visualizationTargetModule "\"^.^\""
par wireless20Nodes.visualizer.obstacleLossVisualizer visualizationSubjectModule "\"^.^\""
par wireless20Nodes.visualizer.obstacleLossVisualizer tags "\"\""
par wireless20Nodes.visualizer.obstacleLossVisualizer displayIntersections false
par wireless20Nodes.visualizer.obstacleLossVisualizer intersectionLineColor "\"red\""
par wireless20Nodes.visualizer.obstacleLossVisualizer intersectionLineStyle "\"solid\""
par wireless20Nodes.visualizer.obstacleLossVisualizer intersectionLineWidth 1
par wireless20Nodes.visualizer.obstacleLossVisualizer displayFaceNormalVectors false
par wireless20Nodes.visualizer.obstacleLossVisualizer faceNormalLineColor "\"grey\""
par wireless20Nodes.visualizer.obstacleLossVisualizer faceNormalLineStyle "\"solid\""
par wireless20Nodes.visualizer.obstacleLossVisualizer faceNormalLineWidth 1
par wireless20Nodes.visualizer.obstacleLossVisualizer fadeOutMode "\"realTime\""
attr enum realTime,animationTime,simulationTime
par wireless20Nodes.visualizer.obstacleLossVisualizer fadeOutTime 1s
attr unit s
par wireless20Nodes.visualizer.obstacleLossVisualizer fadeOutAnimationSpeed 0
par wireless20Nodes.visualizer.obstacleLossVisualizer zIndex 0
par wireless20Nodes.visualizer.packetDropVisualizer typename "\"inet.visualizer.canvas.common.PacketDropCanvasVisualizer\""
par wireless20Nodes.visualizer.packetDropVisualizer visualizationTargetModule "\"^.^\""
par wireless20Nodes.visualizer.packetDropVisualizer visualizationSubjectModule "\"^.^\""
par wireless20Nodes.visualizer.packetDropVisualizer tags "\"\""
par wireless20Nodes.visualizer.packetDropVisualizer displayPacketDrops false
par wireless20Nodes.visualizer.packetDropVisualizer nodeFilter "\"*\""
attr mutable ""
par wireless20Nodes.visualizer.packetDropVisualizer interfaceFilter "\"*\""
attr mutable ""
par wireless20Nodes.visualizer.packetDropVisualizer packetFilter "(omnetpp::cValueHolder)holder: \"*\""
attr mutable ""
par wireless20Nodes.visualizer.packetDropVisualizer detailsFilter "\"*\""
attr mutable ""
par wireless20Nodes.visualizer.packetDropVisualizer icon "\"msg/packet_s\""
par wireless20Nodes.visualizer.packetDropVisualizer iconTintAmount 1
par wireless20Nodes.visualizer.packetDropVisualizer iconTintColor "\"dark\""
par wireless20Nodes.visualizer.packetDropVisualizer labelFormat "\"%n\""
attr mutable ""
par wireless20Nodes.visualizer.packetDropVisualizer labelFont "\"<default>\""
par wireless20Nodes.visualizer.packetDropVisualizer labelColor "\"black\""
par wireless20Nodes.visualizer.packetDropVisualizer fadeOutMode "\"realTime\""
attr enum realTime,animationTime,simulationTime
par wireless20Nodes.visualizer.packetDropVisualizer fadeOutTime 1s
attr unit s
par wireless20Nodes.visualizer.packetDropVisualizer fadeOutAnimationSpeed 0
par wireless20Nodes.visualizer.packetDropVisualizer zIndex 10
par wireless20Nodes.visualizer.packetDropVisualizer dx 32
par wireless20Nodes.visualizer.packetDropVisualizer dy 64
par wireless20Nodes.visualizer.packetFlowVisualizer typename "\"inet.visualizer.canvas.flow.PacketFlowCanvasVisualizer\""
par wireless20Nodes.visualizer.packetFlowVisualizer visualizationTargetModule "\"^.^\""
par wireless20Nodes.visualizer.packetFlowVisualizer visualizationSubjectModule "\"^.^\""
par wireless20Nodes.visualizer.packetFlowVisualizer tags "\"\""
par wireless20Nodes.visualizer.packetFlowVisualizer displayRoutes false
par wireless20Nodes.visualizer.packetFlowVisualizer startPathSignal "\"packetFlowStarted\""
par wireless20Nodes.visualizer.packetFlowVisualizer extendPathSignal "\"packetReceivedFromLower\""
par wireless20Nodes.visualizer.packetFlowVisualizer endPathSignal "\"packetFlowEnded\""
par wireless20Nodes.visualizer.packetFlowVisualizer nodeFilter "\"*\""
attr mutable ""
par wireless20Nodes.visualizer.packetFlowVisualizer packetFilter "(omnetpp::cValueHolder)holder: \"*\""
attr mutable ""
par wireless20Nodes.visualizer.packetFlowVisualizer lineColor "\"dark\""
attr enum light,dark
par wireless20Nodes.visualizer.packetFlowVisualizer lineStyle "\"dashed\""
par wireless20Nodes.visualizer.packetFlowVisualizer lineWidth 3
par wireless20Nodes.visualizer.packetFlowVisualizer lineSmooth false
par wireless20Nodes.visualizer.packetFlowVisualizer lineShift 16
par wireless20Nodes.visualizer.packetFlowVisualizer lineShiftMode "\"normal\""
par wireless20Nodes.visualizer.packetFlowVisualizer lineContactSpacing 3
par wireless20Nodes.visualizer.packetFlowVisualizer lineContactMode "\"rectangular\""
attr enum circular,rectangular
par wireless20Nodes.visualizer.packetFlowVisualizer labelFormat "\"%L %p pk (%l)\""
par wireless20Nodes.visualizer.packetFlowVisualizer labelFont "\"<default>, 8px\""
par wireless20Nodes.visualizer.packetFlowVisualizer labelColor "\"\""
par wireless20Nodes.visualizer.packetFlowVisualizer fadeOutMode "\"realTime\""
attr enum realTime,animationTime,simulationTime
par wireless20Nodes.visualizer.packetFlowVisualizer fadeOutTime 0s
attr unit s
par wireless20Nodes.visualizer.packetFlowVisualizer fadeOutAnimationSpeed 0
par wireless20Nodes.visualizer.packetFlowVisualizer zIndex 4
par wireless20Nodes.visualizer.queueVisualizer typename "\"inet.visualizer.canvas.common.QueueCanvasVisualizer\""
par wireless20Nodes.visualizer.queueVisualizer visualizationTargetModule "\"^.^\""
par wireless20Nodes.visualizer.queueVisualizer visualizationSubjectModule "\"^.^\""
par wireless20Nodes.visualizer.queueVisualizer tags "\"\""
par wireless20Nodes.visualizer.queueVisualizer networkNodeVisualizerModule "\"^.networkNodeVisualizer\""
par wireless20Nodes.visualizer.queueVisualizer displayQueues false
par wireless20Nodes.visualizer.queueVisualizer queueFilter "\"**\""
par wireless20Nodes.visualizer.queueVisualizer color "\"blue\""
par wireless20Nodes.visualizer.queueVisualizer width 8
par wireless20Nodes.visualizer.queueVisualizer height 24
par wireless20Nodes.visualizer.queueVisualizer spacing 2
par wireless20Nodes.visualizer.queueVisualizer placementHint "\"right\""
par wireless20Nodes.visualizer.queueVisualizer placementPriority 0
par wireless20Nodes.visualizer.queueVisualizer zIndex 10
par wireless20Nodes.visualizer.gateScheduleVisualizer typename "\"inet.visualizer.canvas.common.GateScheduleCanvasVisualizer\""
par wireless20Nodes.visualizer.gateScheduleVisualizer visualizationTargetModule "\"^.^\""
par wireless20Nodes.visualizer.gateScheduleVisualizer visualizationSubjectModule "\"^.^\""
par wireless20Nodes.visualizer.gateScheduleVisualizer tags "\"\""
par wireless20Nodes.visualizer.gateScheduleVisualizer networkNodeVisualizerModule "\"^.networkNodeVisualizer\""
par wireless20Nodes.visualizer.gateScheduleVisualizer displayGateSchedules false
par wireless20Nodes.visualizer.gateScheduleVisualizer labelFormat "\"%i %D\""
par wireless20Nodes.visualizer.gateScheduleVisualizer gateFilter "\"**\""
par wireless20Nodes.visualizer.gateScheduleVisualizer width 100
par wireless20Nodes.visualizer.gateScheduleVisualizer height 8
par wireless20Nodes.visualizer.gateScheduleVisualizer spacing 2
par wireless20Nodes.visualizer.gateScheduleVisualizer placementHint "\"right\""
par wireless20Nodes.visualizer.gateScheduleVisualizer placementPriority 0
par wireless20Nodes.visualizer.gateScheduleVisualizer displayDuration 0s
attr mutable ""
attr unit s
par wireless20Nodes.visualizer.gateScheduleVisualizer currentTimePosition 50
par wireless20Nodes.visualizer.gateScheduleVisualizer zIndex 10
par wireless20Nodes.visualizer.radioVisualizer typename "\"inet.visualizer.canvas.physicallayer.RadioCanvasVisualizer\""
par wireless20Nodes.visualizer.radioVisualizer visualizationTargetModule "\"^.^\""
par wireless20Nodes.visualizer.radioVisualizer visualizationSubjectModule "\"^.^\""
par wireless20Nodes.visualizer.radioVisualizer tags "\"\""
par wireless20Nodes.visualizer.radioVisualizer networkNodeVisualizerModule "\"^.networkNodeVisualizer\""
par wireless20Nodes.visualizer.radioVisualizer displayRadios false
par wireless20Nodes.visualizer.radioVisualizer displayRadioMode true
par wireless20Nodes.visualizer.radioVisualizer displayReceptionState true
par wireless20Nodes.visualizer.radioVisualizer displayTransmissionState true
par wireless20Nodes.visualizer.radioVisualizer displayAntennaLobes false
par wireless20Nodes.visualizer.radioVisualizer radioFilter "\"**\""
attr mutable ""
par wireless20Nodes.visualizer.radioVisualizer radioModeImages "\"block/process_vs block/timer_vs block/wrx_vs block/wtx_vs block/wrxtx_vs block/cogwheel_vs\""
par wireless20Nodes.visualizer.radioVisualizer receptionStateImages "\"- - misc/receiving misc/receiving\""
par wireless20Nodes.visualizer.radioVisualizer transmissionStateImages "\"- - misc/transmitting\""
par wireless20Nodes.visualizer.radioVisualizer width 16
par wireless20Nodes.visualizer.radioVisualizer height 16
par wireless20Nodes.visualizer.radioVisualizer placementHint "\"bottomRight\""
par wireless20Nodes.visualizer.radioVisualizer placementPriority 0
par wireless20Nodes.visualizer.radioVisualizer antennaLobeNormalize false
par wireless20Nodes.visualizer.radioVisualizer antennaLobeRelativeLabels false
par wireless20Nodes.visualizer.radioVisualizer antennaLobePlaneGlobal true
par wireless20Nodes.visualizer.radioVisualizer antennaLobePlane "\"view\""
attr enum view,xy,xz,yz
par wireless20Nodes.visualizer.radioVisualizer antennaLobeMode "\"logarithmic\""
attr enum logarithmic,linear
par wireless20Nodes.visualizer.radioVisualizer antennaLobeLogarithmicBase 10
par wireless20Nodes.visualizer.radioVisualizer antennaLobeLogarithmicScale 100
par wireless20Nodes.visualizer.radioVisualizer antennaLobeRadius 100
par wireless20Nodes.visualizer.radioVisualizer antennaLobeStep 10deg
attr unit deg
par wireless20Nodes.visualizer.radioVisualizer antennaLobeOpacity 0.25
par wireless20Nodes.visualizer.radioVisualizer antennaLobeLineSmooth true
par wireless20Nodes.visualizer.radioVisualizer antennaLobeLineColor "\"black\""
par wireless20Nodes.visualizer.radioVisualizer antennaLobeLineStyle "\"solid\""
par wireless20Nodes.visualizer.radioVisualizer antennaLobeLineWidth 1
par wireless20Nodes.visualizer.radioVisualizer antennaLobeFillColor "\"white\""
par wireless20Nodes.visualizer.radioVisualizer zIndex 10
par wireless20Nodes.visualizer.physicalLinkVisualizer typename "\"inet.visualizer.canvas.physicallayer.PhysicalLinkCanvasVisualizer\""
par wireless20Nodes.visualizer.physicalLinkVisualizer visualizationTargetModule "\"^.^\""
par wireless20Nodes.visualizer.physicalLinkVisualizer visualizationSubjectModule "\"^.^\""
par wireless20Nodes.visualizer.physicalLinkVisualizer tags "\"\""
par wireless20Nodes.visualizer.physicalLinkVisualizer displayLinks false
par wireless20Nodes.visualizer.physicalLinkVisualizer activityLevel "\"service\""
attr enum service,peer,protocol
par wireless20Nodes.visualizer.physicalLinkVisualizer nodeFilter "\"*\""
attr mutable ""
par wireless20Nodes.visualizer.physicalLinkVisualizer interfaceFilter "\"*\""
attr mutable ""
par wireless20Nodes.visualizer.physicalLinkVisualizer packetFilter "(omnetpp::cValueHolder)holder: \"*\""
attr mutable ""
par wireless20Nodes.visualizer.physicalLinkVisualizer lineColor "\"olive\""
par wireless20Nodes.visualizer.physicalLinkVisualizer lineStyle "\"dotted\""
par wireless20Nodes.visualizer.physicalLinkVisualizer lineWidth 3
par wireless20Nodes.visualizer.physicalLinkVisualizer lineShift 16
par wireless20Nodes.visualizer.physicalLinkVisualizer lineShiftMode "\"normal\""
par wireless20Nodes.visualizer.physicalLinkVisualizer lineContactSpacing 3
par wireless20Nodes.visualizer.physicalLinkVisualizer lineContactMode "\"rectangular\""
attr enum circular,rectangular
par wireless20Nodes.visualizer.physicalLinkVisualizer labelFormat "\"%n\""
par wireless20Nodes.visualizer.physicalLinkVisualizer labelFont "\"<default>, 8px\""
par wireless20Nodes.visualizer.physicalLinkVisualizer labelColor "\"olive\""
par wireless20Nodes.visualizer.physicalLinkVisualizer fadeOutMode "\"realTime\""
attr enum realTime,animationTime,simulationTime
par wireless20Nodes.visualizer.physicalLinkVisualizer fadeOutTime 1s
attr unit s
par wireless20Nodes.visualizer.physicalLinkVisualizer fadeOutAnimationSpeed 0
par wireless20Nodes.visualizer.physicalLinkVisualizer holdAnimationTime 0s
attr unit s
par wireless20Nodes.visualizer.physicalLinkVisualizer zIndex 1
par wireless20Nodes.visualizer.interfaceTableVisualizer typename "\"inet.visualizer.canvas.linklayer.InterfaceTableCanvasVisualizer\""
par wireless20Nodes.visualizer.interfaceTableVisualizer visualizationTargetModule "\"^.^\""
par wireless20Nodes.visualizer.interfaceTableVisualizer visualizationSubjectModule "\"^.^\""
par wireless20Nodes.visualizer.interfaceTableVisualizer tags "\"\""
par wireless20Nodes.visualizer.interfaceTableVisualizer networkNodeVisualizerModule "\"^.networkNodeVisualizer\""
par wireless20Nodes.visualizer.interfaceTableVisualizer displayInterfaceTables false
par wireless20Nodes.visualizer.interfaceTableVisualizer displayWiredInterfacesAtConnections true
par wireless20Nodes.visualizer.interfaceTableVisualizer displayBackground false
par wireless20Nodes.visualizer.interfaceTableVisualizer nodeFilter "\"*\""
attr mutable ""
par wireless20Nodes.visualizer.interfaceTableVisualizer interfaceFilter "\"not(lo*)\""
attr mutable ""
par wireless20Nodes.visualizer.interfaceTableVisualizer format "\"%N %\\\\%a%/%l\""
attr mutable ""
par wireless20Nodes.visualizer.interfaceTableVisualizer placementHint "\"top\""
par wireless20Nodes.visualizer.interfaceTableVisualizer placementPriority 0
par wireless20Nodes.visualizer.interfaceTableVisualizer font "\"<default>\""
par wireless20Nodes.visualizer.interfaceTableVisualizer textColor "\"#005030\""
par wireless20Nodes.visualizer.interfaceTableVisualizer backgroundColor "\"white\""
par wireless20Nodes.visualizer.interfaceTableVisualizer opacity 1
par wireless20Nodes.visualizer.interfaceTableVisualizer zIndex 10
par wireless20Nodes.visualizer.dataLinkVisualizer typename "\"inet.visualizer.canvas.linklayer.DataLinkCanvasVisualizer\""
par wireless20Nodes.visualizer.dataLinkVisualizer visualizationTargetModule "\"^.^\""
par wireless20Nodes.visualizer.dataLinkVisualizer visualizationSubjectModule "\"^.^\""
par wireless20Nodes.visualizer.dataLinkVisualizer tags "\"\""
par wireless20Nodes.visualizer.dataLinkVisualizer displayLinks false
par wireless20Nodes.visualizer.dataLinkVisualizer activityLevel "\"service\""
attr enum service,peer,protocol
par wireless20Nodes.visualizer.dataLinkVisualizer nodeFilter "\"*\""
attr mutable ""
par wireless20Nodes.visualizer.dataLinkVisualizer interfaceFilter "\"*\""
attr mutable ""
par wireless20Nodes.visualizer.dataLinkVisualizer packetFilter "(omnetpp::cValueHolder)holder: \"*\""
attr mutable ""
par wireless20Nodes.visualizer.dataLinkVisualizer lineColor "\"darkcyan\""
par wireless20Nodes.visualizer.dataLinkVisualizer lineStyle "\"solid\""
par wireless20Nodes.visualizer.dataLinkVisualizer lineWidth 3
par wireless20Nodes.visualizer.dataLinkVisualizer lineShift 16
par wireless20Nodes.visualizer.dataLinkVisualizer lineShiftMode "\"normal\""
par wireless20Nodes.visualizer.dataLinkVisualizer lineContactSpacing 3
par wireless20Nodes.visualizer.dataLinkVisualizer lineContactMode "\"rectangular\""
attr enum circular,rectangular
par wireless20Nodes.visualizer.dataLinkVisualizer labelFormat "\"%n\""
par wireless20Nodes.visualizer.dataLinkVisualizer labelFont "\"<default>, 8px\""
par wireless20Nodes.visualizer.dataLinkVisualizer labelColor "\"darkcyan\""
par wireless20Nodes.visualizer.dataLinkVisualizer fadeOutMode "\"realTime\""
attr enum realTime,animationTime,simulationTime
par wireless20Nodes.visualizer.dataLinkVisualizer fadeOutTime 1s
attr unit s
par wireless20Nodes.visualizer.dataLinkVisualizer fadeOutAnimationSpeed 0
par wireless20Nodes.visualizer.dataLinkVisualizer holdAnimationTime 0s
attr unit s
par wireless20Nodes.visualizer.dataLinkVisualizer zIndex 2
par wireless20Nodes.visualizer.linkBreakVisualizer typename "\"inet.visualizer.canvas.linklayer.LinkBreakCanvasVisualizer\""
par wireless20Nodes.visualizer.linkBreakVisualizer visualizationTargetModule "\"^.^\""
par wireless20Nodes.visualizer.linkBreakVisualizer visualizationSubjectModule "\"^.^\""
par wireless20Nodes.visualizer.linkBreakVisualizer tags "\"\""
par wireless20Nodes.visualizer.linkBreakVisualizer displayLinkBreaks false
par wireless20Nodes.visualizer.linkBreakVisualizer nodeFilter "\"*\""
attr mutable ""
par wireless20Nodes.visualizer.linkBreakVisualizer interfaceFilter "\"*\""
attr mutable ""
par wireless20Nodes.visualizer.linkBreakVisualizer packetFilter "(omnetpp::cValueHolder)holder: \"*\""
attr mutable ""
par wireless20Nodes.visualizer.linkBreakVisualizer icon "\"status/stop\""
par wireless20Nodes.visualizer.linkBreakVisualizer iconTintAmount 0
par wireless20Nodes.visualizer.linkBreakVisualizer iconTintColor "\"\""
par wireless20Nodes.visualizer.linkBreakVisualizer fadeOutMode "\"realTime\""
attr enum realTime,animationTime,simulationTime
par wireless20Nodes.visualizer.linkBreakVisualizer fadeOutTime 1s
attr unit s
par wireless20Nodes.visualizer.linkBreakVisualizer fadeOutAnimationSpeed 0
par wireless20Nodes.visualizer.linkBreakVisualizer zIndex 2
par wireless20Nodes.visualizer.ieee80211Visualizer typename "\"inet.visualizer.canvas.linklayer.Ieee80211CanvasVisualizer\""
par wireless20Nodes.visualizer.ieee80211Visualizer visualizationTargetModule "\"^.^\""
par wireless20Nodes.visualizer.ieee80211Visualizer visualizationSubjectModule "\"^.^\""
par wireless20Nodes.visualizer.ieee80211Visualizer tags "\"\""
par wireless20Nodes.visualizer.ieee80211Visualizer networkNodeVisualizerModule "\"^.networkNodeVisualizer\""
par wireless20Nodes.visualizer.ieee80211Visualizer displayAssociations false
par wireless20Nodes.visualizer.ieee80211Visualizer nodeFilter "\"*\""
attr mutable ""
par wireless20Nodes.visualizer.ieee80211Visualizer interfaceFilter "\"*\""
attr mutable ""
par wireless20Nodes.visualizer.ieee80211Visualizer minPower -85dBm
attr unit dBm
par wireless20Nodes.visualizer.ieee80211Visualizer maxPower -50dBm
attr unit dBm
par wireless20Nodes.visualizer.ieee80211Visualizer icons "\"misc/signal_power_0 misc/signal_power_1 misc/signal_power_2 misc/signal_power_3\""
par wireless20Nodes.visualizer.ieee80211Visualizer iconColor "\"dark\""
attr enum light,dark
par wireless20Nodes.visualizer.ieee80211Visualizer labelFont "\"<default>\""
par wireless20Nodes.visualizer.ieee80211Visualizer labelColor "\"black\""
par wireless20Nodes.visualizer.ieee80211Visualizer placementHint "\"top\""
par wireless20Nodes.visualizer.ieee80211Visualizer placementPriority 0
par wireless20Nodes.visualizer.ieee80211Visualizer zIndex 2
par wireless20Nodes.visualizer.networkRouteVisualizer typename "\"inet.visualizer.canvas.networklayer.NetworkRouteCanvasVisualizer\""
par wireless20Nodes.visualizer.networkRouteVisualizer visualizationTargetModule "\"^.^\""
par wireless20Nodes.visualizer.networkRouteVisualizer visualizationSubjectModule "\"^.^\""
par wireless20Nodes.visualizer.networkRouteVisualizer tags "\"\""
par wireless20Nodes.visualizer.networkRouteVisualizer displayRoutes false
par wireless20Nodes.visualizer.networkRouteVisualizer startPathSignal "\"packetReceivedFromUpper\""
par wireless20Nodes.visualizer.networkRouteVisualizer extendPathSignal "\"packetReceivedFromLower\""
par wireless20Nodes.visualizer.networkRouteVisualizer endPathSignal "\"packetSentToUpper\""
par wireless20Nodes.visualizer.networkRouteVisualizer nodeFilter "\"*\""
attr mutable ""
par wireless20Nodes.visualizer.networkRouteVisualizer packetFilter "(omnetpp::cValueHolder)holder: \"*\""
attr mutable ""
par wireless20Nodes.visualizer.networkRouteVisualizer lineColor "\"dark\""
attr enum light,dark
par wireless20Nodes.visualizer.networkRouteVisualizer lineStyle "\"solid\""
par wireless20Nodes.visualizer.networkRouteVisualizer lineWidth 3
par wireless20Nodes.visualizer.networkRouteVisualizer lineSmooth false
par wireless20Nodes.visualizer.networkRouteVisualizer lineShift 16
par wireless20Nodes.visualizer.networkRouteVisualizer lineShiftMode "\"normal\""
par wireless20Nodes.visualizer.networkRouteVisualizer lineContactSpacing 3
par wireless20Nodes.visualizer.networkRouteVisualizer lineContactMode "\"rectangular\""
attr enum circular,rectangular
par wireless20Nodes.visualizer.networkRouteVisualizer labelFormat "\"%n\""
par wireless20Nodes.visualizer.networkRouteVisualizer labelFont "\"<default>, 8px\""
par wireless20Nodes.visualizer.networkRouteVisualizer labelColor "\"\""
par wireless20Nodes.visualizer.networkRouteVisualizer fadeOutMode "\"realTime\""
attr enum realTime,animationTime,simulationTime
par wireless20Nodes.visualizer.networkRouteVisualizer fadeOutTime 1s
attr unit s
par wireless20Nodes.visualizer.networkRouteVisualizer fadeOutAnimationSpeed 0
par wireless20Nodes.visualizer.networkRouteVisualizer zIndex 3
par wireless20Nodes.visualizer.routingTableVisualizer typename "\"inet.visualizer.canvas.networklayer.RoutingTableCanvasVisualizer\""
par wireless20Nodes.visualizer.routingTableVisualizer visualizationTargetModule "\"^.^\""
par wireless20Nodes.visualizer.routingTableVisualizer visualizationSubjectModule "\"^.^\""
par wireless20Nodes.visualizer.routingTableVisualizer tags "\"\""
par wireless20Nodes.visualizer.routingTableVisualizer displayRoutingTables false
par wireless20Nodes.visualizer.routingTableVisualizer displayRoutesIndividually true
par wireless20Nodes.visualizer.routingTableVisualizer displayLabels true
par wireless20Nodes.visualizer.routingTableVisualizer destinationFilter "\"*\""
attr mutable ""
par wireless20Nodes.visualizer.routingTableVisualizer nodeFilter "\"*\""
attr mutable ""
par wireless20Nodes.visualizer.routingTableVisualizer lineColor "\"black\""
par wireless20Nodes.visualizer.routingTableVisualizer lineStyle "\"solid\""
par wireless20Nodes.visualizer.routingTableVisualizer lineWidth 2
par wireless20Nodes.visualizer.routingTableVisualizer lineShift 16
par wireless20Nodes.visualizer.routingTableVisualizer lineShiftMode "\"normal\""
par wireless20Nodes.visualizer.routingTableVisualizer lineContactSpacing 3
par wireless20Nodes.visualizer.routingTableVisualizer lineContactMode "\"rectangular\""
attr enum circular,rectangular
par wireless20Nodes.visualizer.routingTableVisualizer labelFormat "\"%d/%m -> %g (%n)\""
attr mutable ""
par wireless20Nodes.visualizer.routingTableVisualizer labelFont "\"<default>, 8px\""
par wireless20Nodes.visualizer.routingTableVisualizer labelColor "\"black\""
par wireless20Nodes.visualizer.routingTableVisualizer zIndex 0
par wireless20Nodes.visualizer.transportRouteVisualizer typename "\"inet.visualizer.canvas.transportlayer.TransportRouteCanvasVisualizer\""
par wireless20Nodes.visualizer.transportRouteVisualizer visualizationTargetModule "\"^.^\""
par wireless20Nodes.visualizer.transportRouteVisualizer visualizationSubjectModule "\"^.^\""
par wireless20Nodes.visualizer.transportRouteVisualizer tags "\"\""
par wireless20Nodes.visualizer.transportRouteVisualizer displayRoutes false
par wireless20Nodes.visualizer.transportRouteVisualizer startPathSignal "\"packetReceivedFromUpper\""
par wireless20Nodes.visualizer.transportRouteVisualizer extendPathSignal "\"packetReceivedFromLower\""
par wireless20Nodes.visualizer.transportRouteVisualizer endPathSignal "\"packetSentToUpper\""
par wireless20Nodes.visualizer.transportRouteVisualizer nodeFilter "\"*\""
attr mutable ""
par wireless20Nodes.visualizer.transportRouteVisualizer packetFilter "(omnetpp::cValueHolder)holder: \"*\""
attr mutable ""
par wireless20Nodes.visualizer.transportRouteVisualizer lineColor "\"dark\""
attr enum light,dark
par wireless20Nodes.visualizer.transportRouteVisualizer lineStyle "\"solid\""
par wireless20Nodes.visualizer.transportRouteVisualizer lineWidth 3
par wireless20Nodes.visualizer.transportRouteVisualizer lineSmooth false
par wireless20Nodes.visualizer.transportRouteVisualizer lineShift 16
par wireless20Nodes.visualizer.transportRouteVisualizer lineShiftMode "\"normal\""
par wireless20Nodes.visualizer.transportRouteVisualizer lineContactSpacing 3
par wireless20Nodes.visualizer.transportRouteVisualizer lineContactMode "\"rectangular\""
attr enum circular,rectangular
par wireless20Nodes.visualizer.transportRouteVisualizer labelFormat "\"%n\""
par wireless20Nodes.visualizer.transportRouteVisualizer labelFont "\"<default>, 8px\""
par wireless20Nodes.visualizer.transportRouteVisualizer labelColor "\"\""
par wireless20Nodes.visualizer.transportRouteVisualizer fadeOutMode "\"realTime\""
attr enum realTime,animationTime,simulationTime
par wireless20Nodes.visualizer.transportRouteVisualizer fadeOutTime 1s
attr unit s
par wireless20Nodes.visualizer.transportRouteVisualizer fadeOutAnimationSpeed 0
par wireless20Nodes.visualizer.transportRouteVisualizer zIndex 4
par wireless20Nodes.visualizer.transportConnectionVisualizer typename "\"inet.visualizer.canvas.transportlayer.TransportConnectionCanvasVisualizer\""
par wireless20Nodes.visualizer.transportConnectionVisualizer visualizationTargetModule "\"^.^\""
par wireless20Nodes.visualizer.transportConnectionVisualizer visualizationSubjectModule "\"^.^\""
par wireless20Nodes.visualizer.transportConnectionVisualizer tags "\"\""
par wireless20Nodes.visualizer.transportConnectionVisualizer networkNodeVisualizerModule "\"^.networkNodeVisualizer\""
par wireless20Nodes.visualizer.transportConnectionVisualizer displayTransportConnections false
par wireless20Nodes.visualizer.transportConnectionVisualizer sourceNodeFilter "\"*\""
attr mutable ""
par wireless20Nodes.visualizer.transportConnectionVisualizer sourcePortFilter "\"*\""
attr mutable ""
par wireless20Nodes.visualizer.transportConnectionVisualizer destinationNodeFilter "\"*\""
attr mutable ""
par wireless20Nodes.visualizer.transportConnectionVisualizer destinationPortFilter "\"*\""
attr mutable ""
par wireless20Nodes.visualizer.transportConnectionVisualizer icon "\"misc/marker_s\""
par wireless20Nodes.visualizer.transportConnectionVisualizer iconColor "\"dark\""
attr enum light,dark
par wireless20Nodes.visualizer.transportConnectionVisualizer labelFont "\"<default>\""
par wireless20Nodes.visualizer.transportConnectionVisualizer labelColor "\"black\""
par wireless20Nodes.visualizer.transportConnectionVisualizer placementHint "\"top\""
par wireless20Nodes.visualizer.transportConnectionVisualizer placementPriority 0
par wireless20Nodes.visualizer.transportConnectionVisualizer zIndex 4
par wireless20Nodes.visualizer.failureProtectionConfigurationVisualizer typename "\"inet.visualizer.canvas.configurator.FailureProtectionConfigurationCanvasVisualizer\""
par wireless20Nodes.visualizer.failureProtectionConfigurationVisualizer visualizationTargetModule "\"^.^\""
par wireless20Nodes.visualizer.failureProtectionConfigurationVisualizer visualizationSubjectModule "\"^.^\""
par wireless20Nodes.visualizer.failureProtectionConfigurationVisualizer tags "\"\""
par wireless20Nodes.visualizer.failureProtectionConfigurationVisualizer displayTrees false
par wireless20Nodes.visualizer.failureProtectionConfigurationVisualizer lineColor "\"dark\""
attr enum light,dark
par wireless20Nodes.visualizer.failureProtectionConfigurationVisualizer lineStyle "\"solid\""
par wireless20Nodes.visualizer.failureProtectionConfigurationVisualizer lineWidth 3
par wireless20Nodes.visualizer.failureProtectionConfigurationVisualizer lineSmooth false
par wireless20Nodes.visualizer.failureProtectionConfigurationVisualizer lineShift 16
par wireless20Nodes.visualizer.failureProtectionConfigurationVisualizer lineShiftMode "\"normal\""
par wireless20Nodes.visualizer.failureProtectionConfigurationVisualizer lineContactSpacing 3
par wireless20Nodes.visualizer.failureProtectionConfigurationVisualizer lineContactMode "\"rectangular\""
attr enum circular,rectangular
par wireless20Nodes.visualizer.failureProtectionConfigurationVisualizer failureProtectionConfiguratorModule "\"failureProtectionConfigurator\""
par wireless20Nodes.visualizer.failureProtectionConfigurationVisualizer streamFilter "\"*\""
par wireless20Nodes.visualizer.failureProtectionConfigurationVisualizer zIndex 3
par wireless20Nodes.visualizer.streamRedundancyConfigurationVisualizer typename "\"inet.visualizer.canvas.configurator.StreamRedundancyConfigurationCanvasVisualizer\""
par wireless20Nodes.visualizer.streamRedundancyConfigurationVisualizer visualizationTargetModule "\"^.^\""
par wireless20Nodes.visualizer.streamRedundancyConfigurationVisualizer visualizationSubjectModule "\"^.^\""
par wireless20Nodes.visualizer.streamRedundancyConfigurationVisualizer tags "\"\""
par wireless20Nodes.visualizer.streamRedundancyConfigurationVisualizer displayTrees false
par wireless20Nodes.visualizer.streamRedundancyConfigurationVisualizer lineColor "\"dark\""
attr enum light,dark
par wireless20Nodes.visualizer.streamRedundancyConfigurationVisualizer lineStyle "\"solid\""
par wireless20Nodes.visualizer.streamRedundancyConfigurationVisualizer lineWidth 3
par wireless20Nodes.visualizer.streamRedundancyConfigurationVisualizer lineSmooth false
par wireless20Nodes.visualizer.streamRedundancyConfigurationVisualizer lineShift 16
par wireless20Nodes.visualizer.streamRedundancyConfigurationVisualizer lineShiftMode "\"normal\""
par wireless20Nodes.visualizer.streamRedundancyConfigurationVisualizer lineContactSpacing 3
par wireless20Nodes.visualizer.streamRedundancyConfigurationVisualizer lineContactMode "\"rectangular\""
attr enum circular,rectangular
par wireless20Nodes.visualizer.streamRedundancyConfigurationVisualizer streamRedundancyConfiguratorModule "\"streamRedundancyConfigurator\""
par wireless20Nodes.visualizer.streamRedundancyConfigurationVisualizer streamFilter "\"*\""
par wireless20Nodes.visualizer.streamRedundancyConfigurationVisualizer zIndex 3
par wireless20Nodes.visualizer typename "\"inet.visualizer.canvas.integrated.IntegratedCanvasVisualizer\""
par wireless20Nodes.configurator typename "\"inet.networklayer.configurator.ipv4.Ipv4NetworkConfigurator\""
par wireless20Nodes.configurator minLinkWeight 0.001
par wireless20Nodes.configurator configureIsolatedNetworksSeparatly false
par wireless20Nodes.configurator config "<config>...</config> at content:1"
par wireless20Nodes.configurator assignAddresses true
par wireless20Nodes.configurator assignUniqueAddresses true
par wireless20Nodes.configurator assignDisjunctSubnetAddresses true
par wireless20Nodes.configurator addStaticRoutes true
par wireless20Nodes.configurator addDefaultRoutes true
par wireless20Nodes.configurator addSubnetRoutes true
par wireless20Nodes.configurator addDirectRoutes true
par wireless20Nodes.configurator optimizeRoutes true
par wireless20Nodes.configurator dumpTopology false
par wireless20Nodes.configurator dumpLinks false
par wireless20Nodes.configurator dumpAddresses false
par wireless20Nodes.configurator dumpRoutes false
par wireless20Nodes.configurator dumpConfig "\"\""
par wireless20Nodes.radioMedium.propagation typename "\"inet.physicallayer.wireless.common.propagation.ConstantSpeedPropagation\""
par wireless20Nodes.radioMedium.propagation propagationSpeed 2.99792e+08mps
attr unit mps
par wireless20Nodes.radioMedium.propagation ignoreMovementDuringTransmission true
par wireless20Nodes.radioMedium.propagation ignoreMovementDuringPropagation true
par wireless20Nodes.radioMedium.propagation ignoreMovementDuringReception true
scalar wireless20Nodes.radioMedium.propagation "Arrival computation count" 211692
par wireless20Nodes.radioMedium.analogModel typename "\"inet.physicallayer.wireless.unitdisk.UnitDiskAnalogModel\""
par wireless20Nodes.radioMedium.pathLoss typename "\"inet.physicallayer.wireless.common.pathloss.FreeSpacePathLoss\""
par wireless20Nodes.radioMedium.pathLoss alpha 2
par wireless20Nodes.radioMedium.pathLoss systemLoss 0dB
attr unit dB
par wireless20Nodes.radioMedium.mediumLimitCache typename "\"inet.physicallayer.wireless.common.medium.MediumLimitCache\""
par wireless20Nodes.radioMedium.mediumLimitCache centerFrequency "nan Hz"
attr unit Hz
par wireless20Nodes.radioMedium.mediumLimitCache maxSpeed "nan mps"
attr unit mps
par wireless20Nodes.radioMedium.mediumLimitCache maxTransmissionPower "nan W"
attr unit W
par wireless20Nodes.radioMedium.mediumLimitCache minInterferencePower "nan dBm"
attr unit dBm
par wireless20Nodes.radioMedium.mediumLimitCache minReceptionPower "nan dBm"
attr unit dBm
par wireless20Nodes.radioMedium.mediumLimitCache maxAntennaGain 0dB
attr unit dB
par wireless20Nodes.radioMedium.mediumLimitCache minInterferenceTime 1e-12s
attr unit s
par wireless20Nodes.radioMedium.mediumLimitCache maxTransmissionDuration 0.01s
attr unit s
par wireless20Nodes.radioMedium.mediumLimitCache maxCommunicationRange "nan m"
attr unit m
par wireless20Nodes.radioMedium.mediumLimitCache maxInterferenceRange "nan m"
attr unit m
par wireless20Nodes.radioMedium.communicationCache typename "\"inet.physicallayer.wireless.common.communicationcache.VectorCommunicationCache\""
par wireless20Nodes.radioMedium typename "\"inet.physicallayer.wireless.unitdisk.UnitDiskRadioMedium\""
par wireless20Nodes.radioMedium physicalEnvironmentModule "\"physicalEnvironment\""
par wireless20Nodes.radioMedium signalAnalogRepresentation "\"unitDisk\""
attr enum unitDisk,scalar,dimensional
par wireless20Nodes.radioMedium rangeFilter "\"\""
par wireless20Nodes.radioMedium radioModeFilter false
par wireless20Nodes.radioMedium listeningFilter false
par wireless20Nodes.radioMedium macAddressFilter false
par wireless20Nodes.radioMedium recordTransmissionLog false
par wireless20Nodes.radioMedium recordReceptionLog false
scalar wireless20Nodes.radioMedium "transmission count" 9204
scalar wireless20Nodes.radioMedium "signal send count" 211692
scalar wireless20Nodes.radioMedium "reception computation count" 211692
scalar wireless20Nodes.radioMedium "interference computation count" 614181
scalar wireless20Nodes.radioMedium "reception decision computation count" 35026
scalar wireless20Nodes.radioMedium "listening decision computation count" 367463
scalar wireless20Nodes.radioMedium "reception cache hit" 84.061881687562
attr unit %
scalar wireless20Nodes.radioMedium "interference cache hit" 66.666666666667
attr unit %
scalar wireless20Nodes.radioMedium "noise cache hit" 0
attr unit %
scalar wireless20Nodes.radioMedium "snir cache hit" 50
attr unit %
scalar wireless20Nodes.radioMedium "reception decision cache hit" 50
attr unit %
scalar wireless20Nodes.radioMedium "reception result cache hit" 0
attr unit %
par wireless20Nodes.host1.radioIn[0].channel typename "\"ned.IdealChannel\""
par wireless20Nodes.host1.mobility typename "\"inet.mobility.static.StationaryMobility\""
par wireless20Nodes.host1.mobility subjectModule "\"^\""
par wireless20Nodes.host1.mobility coordinateSystemModule "\"\""
par wireless20Nodes.host1.mobility displayStringTextFormat "\"p: %p\\nv: %v\""
attr mutable ""
par wireless20Nodes.host1.mobility updateDisplayString true
par wireless20Nodes.host1.mobility constraintAreaMinX 0m
attr unit m
par wireless20Nodes.host1.mobility constraintAreaMinY 0m
attr unit m
par wireless20Nodes.host1.mobility constraintAreaMinZ 0m
attr unit m
par wireless20Nodes.host1.mobility constraintAreaMaxX 10000m
attr unit m
par wireless20Nodes.host1.mobility constraintAreaMaxY 10000m
attr unit m
par wireless20Nodes.host1.mobility constraintAreaMaxZ 0m
attr unit m
par wireless20Nodes.host1.mobility initialX 5488.14m
attr unit m
par wireless20Nodes.host1.mobility initialY 5928.45m
attr unit m
par wireless20Nodes.host1.mobility initialZ 0m
attr unit m
par wireless20Nodes.host1.mobility initialLatitude "nan deg"
attr unit deg
par wireless20Nodes.host1.mobility initialLongitude "nan deg"
attr unit deg
par wireless20Nodes.host1.mobility initialAltitude 0m
attr unit m
par wireless20Nodes.host1.mobility initialHeading 0deg
attr unit deg
par wireless20Nodes.host1.mobility initialElevation 0deg
attr unit deg
par wireless20Nodes.host1.mobility initialBank 0deg
attr unit deg
par wireless20Nodes.host1.mobility initFromDisplayString true
par wireless20Nodes.host1.mobility updateFromDisplayString true
par wireless20Nodes.host1.pcapRecorder[0] typename "\"inet.common.packet.recorder.PcapRecorder\""
par wireless20Nodes.host1.pcapRecorder[0] verbose true
par wireless20Nodes.host1.pcapRecorder[0] pcapFile "\"results/host1.pcap\""
par wireless20Nodes.host1.pcapRecorder[0] fileFormat "\"pcapng\""
attr enum pcap,pcapng
par wireless20Nodes.host1.pcapRecorder[0] snaplen 65535
par wireless20Nodes.host1.pcapRecorder[0] dumpBadFrames true
par wireless20Nodes.host1.pcapRecorder[0] moduleNamePatterns "\"wlan[*] eth[*] ppp[*]\""
par wireless20Nodes.host1.pcapRecorder[0] sendingSignalNames "\"packetSentToLower\""
par wireless20Nodes.host1.pcapRecorder[0] receivingSignalNames "\"packetReceivedFromLower\""
par wireless20Nodes.host1.pcapRecorder[0] dumpProtocols "\"ethernetmac ppp ieee80211mac\""
par wireless20Nodes.host1.pcapRecorder[0] packetFilter "(omnetpp::cValueHolder)holder: \"*\""
par wireless20Nodes.host1.pcapRecorder[0] helpers "\"\""
par wireless20Nodes.host1.pcapRecorder[0] alwaysFlush true
par wireless20Nodes.host1.pcapRecorder[0] displayStringTextFormat "\"rec: %n pks\""
par wireless20Nodes.host1.interfaceTable typename "\"inet.networklayer.common.InterfaceTable\""
par wireless20Nodes.host1.interfaceTable displayAddresses false
par wireless20Nodes.host1.cb typename "\"inet.common.MessageDispatcher\""
par wireless20Nodes.host1.cb displayStringTextFormat "\"processed %p pk (%l)\""
par wireless20Nodes.host1.cb forwardServiceRegistration true
par wireless20Nodes.host1.cb forwardProtocolRegistration true
par wireless20Nodes.host1.bl typename "\"inet.common.MessageDispatcher\""
par wireless20Nodes.host1.bl displayStringTextFormat "\"processed %p pk (%l)\""
par wireless20Nodes.host1.bl forwardServiceRegistration true
par wireless20Nodes.host1.bl forwardProtocolRegistration true
par wireless20Nodes.host1.li typename "\"inet.common.MessageDispatcher\""
par wireless20Nodes.host1.li displayStringTextFormat "\"processed %p pk (%l)\""
par wireless20Nodes.host1.li forwardServiceRegistration true
par wireless20Nodes.host1.li forwardProtocolRegistration true
par wireless20Nodes.host1.lo[0].upperLayerIn.channel typename "\"ned.IdealChannel\""
par wireless20Nodes.host1.lo[0].lo.upperLayerOut.channel typename "\"ned.IdealChannel\""
par wireless20Nodes.host1.lo[0].lo typename "\"inet.linklayer.loopback.Loopback\""
par wireless20Nodes.host1.lo[0].lo interfaceTableModule "\"wireless20Nodes.host1.interfaceTable\""
par wireless20Nodes.host1.lo[0].lo mtu 4470B
attr unit B
scalar wireless20Nodes.host1.lo[0].lo rcvdPkFromHl:count 0
attr interpolationmode none
attr recordingmode count
attr source packetReceivedFromUpper
attr title "packets received from higher layer, count"
scalar wireless20Nodes.host1.lo[0].lo rcvdPkFromHl:sum(packetBytes) 0
attr interpolationmode none
attr recordingmode sum(packetBytes)
attr source packetReceivedFromUpper
attr title "packets received from higher layer, sum(packetBytes)"
scalar wireless20Nodes.host1.lo[0].lo passedUpPk:count 0
attr interpolationmode none
attr recordingmode count
attr source packetSentToUpper
attr title "packets passed to higher layer, count"
scalar wireless20Nodes.host1.lo[0].lo passedUpPk:sum(packetBytes) 0
attr interpolationmode none
attr recordingmode sum(packetBytes)
attr source packetSentToUpper
attr title "packets passed to higher layer, sum(packetBytes)"
par wireless20Nodes.host1.lo[0] typename "\"inet.linklayer.loopback.LoopbackInterface\""
par wireless20Nodes.host1.lo[0] displayStringTextFormat "\"%a (%i)\\n%m\""
par wireless20Nodes.host1.lo[0] recordPcap false
par wireless20Nodes.host1.lo[0] numPcapRecorders 0
par wireless20Nodes.host1.lo[0] interfaceTableModule "\"wireless20Nodes.host1.interfaceTable\""
scalar wireless20Nodes.host1.lo[0] packetDropInterfaceDown:count 0
attr interpolationmode none
attr recordingmode count
attr source packetDropReasonIsInterfaceDown(packetDropped)
attr title "packet drops: interface down, count"
scalar wireless20Nodes.host1.lo[0] packetDropInterfaceDown:sum(packetBytes) 0
attr interpolationmode none
attr recordingmode sum(packetBytes)
attr source packetDropReasonIsInterfaceDown(packetDropped)
attr title "packet drops: interface down, sum(packetBytes)"
scalar wireless20Nodes.host1.lo[0] packetDropNoCarrier:count 0
attr interpolationmode none
attr recordingmode count
attr source packetDropReasonIsNoCarrier(packetDropped)
attr title "packet drops: no carrier, count"
scalar wireless20Nodes.host1.lo[0] packetDropNoCarrier:sum(packetBytes) 0
attr interpolationmode none
attr recordingmode sum(packetBytes)
attr source packetDropReasonIsNoCarrier(packetDropped)
attr title "packet drops: no carrier, sum(packetBytes)"
par wireless20Nodes.host1.wlan[0].upperLayerIn.channel typename "\"ned.IdealChannel\""
par wireless20Nodes.host1.wlan[0].radioIn.channel typename "\"ned.IdealChannel\""
par wireless20Nodes.host1.wlan[0].mac.upperLayerOut.channel typename "\"ned.IdealChannel\""
par wireless20Nodes.host1.wlan[0].queue typename "\"inet.queueing.queue.DropTailQueue\""
par wireless20Nodes.host1.wlan[0].queue displayStringTextFormat "\"contains %p pk (%l) pushed %u\\npulled %o removed %r dropped %d\""
par wireless20Nodes.host1.wlan[0].queue packetCapacity 100
par wireless20Nodes.host1.wlan[0].queue dataCapacity -1b
attr unit b
par wireless20Nodes.host1.wlan[0].queue dropperClass "\"inet::queueing::PacketAtCollectionEndDropper\""
par wireless20Nodes.host1.wlan[0].queue comparatorClass "\"\""
par wireless20Nodes.host1.wlan[0].queue bufferModule "\"\""
scalar wireless20Nodes.host1.wlan[0].queue queueLength:last 0
attr autoWarmupFilter false
attr interpolationmode sample-hold
attr recordingmode last
attr source "warmup(atomic(constant0(packetPushEnded) + count(packetPushStarted) - count(packetPulled) - count(packetRemoved) - count(packetDropped)))"
attr title "queue length, last"
attr unit pk
scalar wireless20Nodes.host1.wlan[0].queue queueLength:max 0
attr autoWarmupFilter false
attr interpolationmode sample-hold
attr recordingmode max
attr source "warmup(atomic(constant0(packetPushEnded) + count(packetPushStarted) - count(packetPulled) - count(packetRemoved) - count(packetDropped)))"
attr title "queue length, max"
attr unit pk
scalar wireless20Nodes.host1.wlan[0].queue queueLength:timeavg 0
attr autoWarmupFilter false
attr interpolationmode sample-hold
attr recordingmode timeavg
attr source "warmup(atomic(constant0(packetPushEnded) + count(packetPushStarted) - count(packetPulled) - count(packetRemoved) - count(packetDropped)))"
attr title "queue length, timeavg"
attr unit pk
scalar wireless20Nodes.host1.wlan[0].queue queueBitLength:last 0
attr autoWarmupFilter false
attr interpolationmode sample-hold
attr recordingmode last
attr source "warmup(atomic(constant0(packetPushEnded) + sum(packetLength(packetPushStarted)) - sum(packetLength(packetPulled)) - sum(packetLength(packetRemoved)) - sum(packetLength(packetDropped))))"
attr title "queue bit length, last"
attr unit b
scalar wireless20Nodes.host1.wlan[0].queue queueBitLength:max 0
attr autoWarmupFilter false
attr interpolationmode sample-hold
attr recordingmode max
attr source "warmup(atomic(constant0(packetPushEnded) + sum(packetLength(packetPushStarted)) - sum(packetLength(packetPulled)) - sum(packetLength(packetRemoved)) - sum(packetLength(packetDropped))))"
attr title "queue bit length, max"
attr unit b
scalar wireless20Nodes.host1.wlan[0].queue queueBitLength:timeavg 0
attr autoWarmupFilter false
attr interpolationmode sample-hold
attr recordingmode timeavg
attr source "warmup(atomic(constant0(packetPushEnded) + sum(packetLength(packetPushStarted)) - sum(packetLength(packetPulled)) - sum(packetLength(packetRemoved)) - sum(packetLength(packetDropped))))"
attr title "queue bit length, timeavg"
attr unit b
statistic wireless20Nodes.host1.wlan[0].queue queueingTime:histogram
field count 189
field mean 0
field stddev 0
field min 0
field max 0
field sum 0
field sqrsum 0
attr interpolationmode none
attr recordingmode histogram
attr source queueingTime(packetPulled)
attr title "queueing times"
attr unit s
bin	-inf	0
bin	-0.5	0
bin	-0.48	0
bin	-0.46	0
bin	-0.44	0
bin	-0.42	0
bin	-0.4	0
bin	-0.38	0
bin	-0.36	0
bin	-0.34	0
bin	-0.32	0
bin	-0.3	0
bin	-0.28	0
bin	-0.26	0
bin	-0.24	0
bin	-0.22	0
bin	-0.2	0
bin	-0.18	0
bin	-0.16	0
bin	-0.14	0
bin	-0.12	0
bin	-0.1	0
bin	-0.08	0
bin	-0.06	0
bin	-0.04	0
bin	-0.02	0
bin	0	189
bin	0.02	0
bin	0.04	0
bin	0.06	0
bin	0.08	0
bin	0.1	0
bin	0.12	0
bin	0.14	0
bin	0.16	0
bin	0.18	0
bin	0.2	0
bin	0.22	0
bin	0.24	0
bin	0.26	0
bin	0.28	0
bin	0.3	0
bin	0.32	0
bin	0.34	0
bin	0.36	0
bin	0.38	0
bin	0.4	0
bin	0.42	0
bin	0.44	0
bin	0.46	0
bin	0.48	0
bin	0.5	0
scalar wireless20Nodes.host1.wlan[0].queue outgoingPackets:count 189
attr recordingmode count
attr source packetPulled
attr title "outgoing packets, count"
attr unit pk
scalar wireless20Nodes.host1.wlan[0].queue outgoingPacketLengths:sum 409280
attr interpolationmode none
attr recordingmode sum
attr source packetLength(packetPulled)
attr title "outgoing packet lengths, sum"
attr unit b
statistic wireless20Nodes.host1.wlan[0].queue outgoingPacketLengths:histogram
field count 189
field mean 2165.5026455026
field stddev 3248.4499521692
field min 288
field max 8320
field sum 409280
field sqrsum 2870153216
attr interpolationmode none
attr recordingmode histogram
attr source packetLength(packetPulled)
attr title "outgoing packet lengths"
attr unit b
bin	-inf	0
bin	0	0
bin	200	26
bin	400	80
bin	600	42
bin	800	0
bin	1000	0
bin	1200	0
bin	1400	0
bin	1600	0
bin	1800	0
bin	2000	0
bin	2200	0
bin	2400	0
bin	2600	0
bin	2800	0
bin	3000	0
bin	3200	0
bin	3400	0
bin	3600	0
bin	3800	0
bin	4000	0
bin	4200	0
bin	4400	0
bin	4600	0
bin	4800	0
bin	5000	0
bin	5200	0
bin	5400	0
bin	5600	0
bin	5800	0
bin	6000	0
bin	6200	0
bin	6400	0
bin	6600	0
bin	6800	0
bin	7000	0
bin	7200	0
bin	7400	0
bin	7600	0
bin	7800	0
bin	8000	0
bin	8200	41
bin	8400	0
bin	8600	0
bin	8800	0
bin	9000	0
bin	9200	0
bin	9400	0
bin	9600	0
bin	9800	0
bin	10000	0
bin	10200	0
bin	10400	0
statistic wireless20Nodes.host1.wlan[0].queue flowQueueingTime:histogram
field count 0
field mean nan
field stddev nan
field min nan
field max nan
field sum 0
field sqrsum 0
attr interpolationmode none
attr recordingmode histogram
attr source queueingTime(demuxFlow(packetPulled))
attr title "flow queueing times"
attr unit s
bin	-inf	0
bin	0	0
bin	1	0
scalar wireless20Nodes.host1.wlan[0].queue incomingPackets:count 189
attr recordingmode count
attr source packetPushStarted
attr title "incoming packets, count"
attr unit pk
scalar wireless20Nodes.host1.wlan[0].queue incomingPacketLengths:sum 409280
attr interpolationmode none
attr recordingmode sum
attr source packetLength(packetPushStarted)
attr title "incoming packet lengths, sum"
attr unit b
statistic wireless20Nodes.host1.wlan[0].queue incomingPacketLengths:histogram
field count 189
field mean 2165.5026455026
field stddev 3248.4499521692
field min 288
field max 8320
field sum 409280
field sqrsum 2870153216
attr interpolationmode none
attr recordingmode histogram
attr source packetLength(packetPushStarted)
attr title "incoming packet lengths"
attr unit b
bin	-inf	0
bin	0	0
bin	200	26
bin	400	80
bin	600	42
bin	800	0
bin	1000	0
bin	1200	0
bin	1400	0
bin	1600	0
bin	1800	0
bin	2000	0
bin	2200	0
bin	2400	0
bin	2600	0
bin	2800	0
bin	3000	0
bin	3200	0
bin	3400	0
bin	3600	0
bin	3800	0
bin	4000	0
bin	4200	0
bin	4400	0
bin	4600	0
bin	4800	0
bin	5000	0
bin	5200	0
bin	5400	0
bin	5600	0
bin	5800	0
bin	6000	0
bin	6200	0
bin	6400	0
bin	6600	0
bin	6800	0
bin	7000	0
bin	7200	0
bin	7400	0
bin	7600	0
bin	7800	0
bin	8000	0
bin	8200	41
bin	8400	0
bin	8600	0
bin	8800	0
bin	9000	0
bin	9200	0
bin	9400	0
bin	9600	0
bin	9800	0
bin	10000	0
bin	10200	0
bin	10400	0
scalar wireless20Nodes.host1.wlan[0].queue droppedPacketsQueueOverflow:count 0
attr interpolationmode none
attr recordingmode count
attr source packetDropReasonIsQueueOverflow(packetDropped)
attr title "dropped packets: queue overflow, count"
attr unit pk
scalar wireless20Nodes.host1.wlan[0].queue droppedPacketLengthsQueueOverflow:sum 0
attr interpolationmode none
attr recordingmode sum
attr source packetLength(packetDropReasonIsQueueOverflow(packetDropped))
attr title "dropped packet lengths: queue overflow, sum"
attr unit b
par wireless20Nodes.host1.wlan[0].mac typename "\"inet.linklayer.acking.AckingMac\""
par wireless20Nodes.host1.wlan[0].mac interfaceTableModule "\"wireless20Nodes.host1.interfaceTable\""
par wireless20Nodes.host1.wlan[0].mac address "\"auto\""
attr mutable ""
par wireless20Nodes.host1.wlan[0].mac bitrate 2e+06bps
attr unit bps
par wireless20Nodes.host1.wlan[0].mac mtu 4470B
attr unit B
par wireless20Nodes.host1.wlan[0].mac headerLength 23B
attr unit B
par wireless20Nodes.host1.wlan[0].mac promiscuous false
par wireless20Nodes.host1.wlan[0].mac fullDuplex true
par wireless20Nodes.host1.wlan[0].mac useAck true
par wireless20Nodes.host1.wlan[0].mac ackTimeout 0.1s
attr unit s
scalar wireless20Nodes.host1.wlan[0].mac rcvdPkFromLl:count 1349
attr interpolationmode none
attr recordingmode count
attr source packetReceivedFromLower
attr title "packets received from lower layer, count"
scalar wireless20Nodes.host1.wlan[0].mac rcvdPkFromLl:sum(packetBytes) 583703
attr interpolationmode none
attr recordingmode sum(packetBytes)
attr source packetReceivedFromLower
attr title "packets received from lower layer, sum(packetBytes)"
scalar wireless20Nodes.host1.wlan[0].mac sentDownPk:count 189
attr interpolationmode none
attr recordingmode count
attr source packetSentToLower
attr title "packets sent to lower layer, count"
scalar wireless20Nodes.host1.wlan[0].mac sentDownPk:sum(packetBytes) 55507
attr interpolationmode none
attr recordingmode sum(packetBytes)
attr source packetSentToLower
attr title "packets sent to lower layer, sum(packetBytes)"
scalar wireless20Nodes.host1.wlan[0].mac rcvdPkFromHl:count 189
attr interpolationmode none
attr recordingmode count
attr source packetReceivedFromUpper
attr title "packets received from higher layer, count"
scalar wireless20Nodes.host1.wlan[0].mac rcvdPkFromHl:sum(packetBytes) 51160
attr interpolationmode none
attr recordingmode sum(packetBytes)
attr source packetReceivedFromUpper
attr title "packets received from higher layer, sum(packetBytes)"
scalar wireless20Nodes.host1.wlan[0].mac passedUpPk:count 490
attr interpolationmode none
attr recordingmode count
attr source packetSentToUpper
attr title "packets passed to higher layer, count"
scalar wireless20Nodes.host1.wlan[0].mac passedUpPk:sum(packetBytes) 106256
attr interpolationmode none
attr recordingmode sum(packetBytes)
attr source packetSentToUpper
attr title "packets passed to higher layer, sum(packetBytes)"
scalar wireless20Nodes.host1.wlan[0].mac packetDropIncorrectlyReceived:count 0
attr interpolationmode none
attr recordingmode count
attr source packetDropReasonIsIncorrectlyReceived(packetDropped)
attr title "packet drop: incorrectly received, count"
scalar wireless20Nodes.host1.wlan[0].mac packetDropIncorrectlyReceived:sum(packetBytes) 0
attr interpolationmode none
attr recordingmode sum(packetBytes)
attr source packetDropReasonIsIncorrectlyReceived(packetDropped)
attr title "packet drop: incorrectly received, sum(packetBytes)"
scalar wireless20Nodes.host1.wlan[0].mac packetDropInterfaceDown:count 0
attr interpolationmode none
attr recordingmode count
attr source packetDropReasonIsInterfaceDown(packetDropped)
attr title "packet drop: interface down, count"
scalar wireless20Nodes.host1.wlan[0].mac packetDropInterfaceDown:sum(packetBytes) 0
attr interpolationmode none
attr recordingmode sum(packetBytes)
attr source packetDropReasonIsInterfaceDown(packetDropped)
attr title "packet drop: interface down, sum(packetBytes)"
scalar wireless20Nodes.host1.wlan[0].mac packetDropNotAddressedToUs:count 859
attr interpolationmode none
attr recordingmode count
attr source packetDropReasonIsNotAddressedToUs(packetDropped)
attr title "packet drop: not addressed to us, count"
scalar wireless20Nodes.host1.wlan[0].mac packetDropNotAddressedToUs:sum(packetBytes) 466177
attr interpolationmode none
attr recordingmode sum(packetBytes)
attr source packetDropReasonIsNotAddressedToUs(packetDropped)
attr title "packet drop: not addressed to us, sum(packetBytes)"
scalar wireless20Nodes.host1.wlan[0].mac linkBroken:count 0
attr interpolationmode none
attr recordingmode count
attr source linkBroken
attr title "link break, count"
par wireless20Nodes.host1.wlan[0].radio.antenna typename "\"inet.physicallayer.wireless.common.antenna.IsotropicAntenna\""
par wireless20Nodes.host1.wlan[0].radio.antenna mobilityModule "\"^.^.^.mobility\""
par wireless20Nodes.host1.wlan[0].radio.antenna numAntennas 1
par wireless20Nodes.host1.wlan[0].radio.transmitter typename "\"inet.physicallayer.wireless.unitdisk.UnitDiskTransmitter\""
par wireless20Nodes.host1.wlan[0].radio.transmitter preambleDuration 0s
attr unit s
par wireless20Nodes.host1.wlan[0].radio.transmitter headerLength 96b
attr unit b
par wireless20Nodes.host1.wlan[0].radio.transmitter bitrate 2e+06bps
attr unit bps
par wireless20Nodes.host1.wlan[0].radio.transmitter communicationRange 2000m
attr unit m
par wireless20Nodes.host1.wlan[0].radio.transmitter interferenceRange 0m
attr unit m
par wireless20Nodes.host1.wlan[0].radio.transmitter detectionRange 0m
attr unit m
par wireless20Nodes.host1.wlan[0].radio.receiver typename "\"inet.physicallayer.wireless.unitdisk.UnitDiskReceiver\""
par wireless20Nodes.host1.wlan[0].radio.receiver ignoreInterference true
par wireless20Nodes.host1.wlan[0].radio typename "\"inet.physicallayer.wireless.unitdisk.UnitDiskRadio\""
par wireless20Nodes.host1.wlan[0].radio radioMediumModule "\"radioMedium\""
par wireless20Nodes.host1.wlan[0].radio energySourceModule "\"\""
par wireless20Nodes.host1.wlan[0].radio initialRadioMode "\"off\""
attr enum off,sleep,receiver,transmitter,transceiver
par wireless20Nodes.host1.wlan[0].radio switchingTimes "\"ms 0 0 0 0 0 0 0 0 0 0 0 0 0 0 0 0 0 0 0 0 0 0 0 0 0\""
par wireless20Nodes.host1.wlan[0].radio sendRawBytes false
par wireless20Nodes.host1.wlan[0].radio separateTransmissionParts false
par wireless20Nodes.host1.wlan[0].radio separateReceptionParts false
par wireless20Nodes.host1.wlan[0].radio displayCommunicationRange true
par wireless20Nodes.host1.wlan[0].radio displayInterferenceRange false
statistic wireless20Nodes.host1.wlan[0].radio minSnir:histogram
field count 0
field mean nan
field stddev nan
field min nan
field max nan
field sum 0
field sqrsum 0
attr recordingmode histogram
attr source minimumSnir(packetSentToUpper)
attr title "Min SNIR"
bin	-inf	0
bin	0	0
bin	1	0
statistic wireless20Nodes.host1.wlan[0].radio packetErrorRate:histogram
field count 1349
field mean 0.080800593031875
field stddev 0.27262970310383
field min 0
field max 1
field sum 109
field sqrsum 109
attr recordingmode histogram
attr source packetErrorRate(packetSentToUpper)
attr title "Packet error rate"
bin	-inf	0
bin	0	1240
bin	1	109
bin	2	0
statistic wireless20Nodes.host1.wlan[0].radio bitErrorRate:histogram
field count 1349
field mean 0.080800593031875
field stddev 0.27262970310383
field min 0
field max 1
field sum 109
field sqrsum 109
attr recordingmode histogram
attr source bitErrorRate(packetSentToUpper)
attr title "Bit error rate"
bin	-inf	0
bin	0	1240
bin	1	109
bin	2	0
statistic wireless20Nodes.host1.wlan[0].radio symbolErrorRate:histogram
field count 1349
field mean 0.080800593031875
field stddev 0.27262970310383
field min 0
field max 1
field sum 109
field sqrsum 109
attr recordingmode histogram
attr source symbolErrorRate(packetSentToUpper)
attr title "Symbol error rate"
bin	-inf	0
bin	0	1240
bin	1	109
bin	2	0
scalar wireless20Nodes.host1.wlan[0].radio transmissionState:count 379
attr interpolationmode sample-hold
attr recordingmode count
attr source transmissionStateChanged
attr title "Radio transmission state, count"
scalar wireless20Nodes.host1.wlan[0].radio receptionState:count 2775
attr interpolationmode sample-hold
attr recordingmode count
attr source receptionStateChanged
attr title "Radio reception state, count"
scalar wireless20Nodes.host1.wlan[0].radio radioMode:count 3
attr interpolationmode sample-hold
attr recordingmode count
attr source radioModeChanged
attr title "Radio mode, count"
par wireless20Nodes.host1.wlan[0] typename "\"inet.linklayer.acking.AckingWirelessInterface\""
par wireless20Nodes.host1.wlan[0] displayStringTextFormat "\"%a (%i)\\n%m\""
par wireless20Nodes.host1.wlan[0] recordPcap false
par wireless20Nodes.host1.wlan[0] numPcapRecorders 0
par wireless20Nodes.host1.wlan[0] interfaceTableModule "\"wireless20Nodes.host1.interfaceTable\""
par wireless20Nodes.host1.wlan[0] energySourceModule "\"\""
par wireless20Nodes.host1.wlan[0] bitrate 2e+06bps
attr unit bps
scalar wireless20Nodes.host1.wlan[0] packetDropInterfaceDown:count 0
attr interpolationmode none
attr recordingmode count
attr source packetDropReasonIsInterfaceDown(packetDropped)
attr title "packet drops: interface down, count"
scalar wireless20Nodes.host1.wlan[0] packetDropInterfaceDown:sum(packetBytes) 0
attr interpolationmode none
attr recordingmode sum(packetBytes)
attr source packetDropReasonIsInterfaceDown(packetDropped)
attr title "packet drops: interface down, sum(packetBytes)"
scalar wireless20Nodes.host1.wlan[0] packetDropNoCarrier:count 0
attr interpolationmode none
attr recordingmode count
attr source packetDropReasonIsNoCarrier(packetDropped)
attr title "packet drops: no carrier, count"
scalar wireless20Nodes.host1.wlan[0] packetDropNoCarrier:sum(packetBytes) 0
attr interpolationmode none
attr recordingmode sum(packetBytes)
attr source packetDropReasonIsNoCarrier(packetDropped)
attr title "packet drops: no carrier, sum(packetBytes)"
par wireless20Nodes.host1.ipv4.transportIn.channel typename "\"ned.IdealChannel\""
par wireless20Nodes.host1.ipv4.up.out[0].channel typename "\"ned.IdealChannel\""
par wireless20Nodes.host1.ipv4.lp.out[2].channel typename "\"ned.IdealChannel\""
par wireless20Nodes.host1.ipv4.ifIn.channel typename "\"ned.IdealChannel\""
par wireless20Nodes.host1.ipv4.configurator typename "\"inet.networklayer.configurator.ipv4.Ipv4NodeConfigurator\""
par wireless20Nodes.host1.ipv4.configurator interfaceTableModule "\"wireless20Nodes.host1.interfaceTable\""
par wireless20Nodes.host1.ipv4.configurator routingTableModule "\"wireless20Nodes.host1.ipv4.routingTable\""
par wireless20Nodes.host1.ipv4.configurator networkConfiguratorModule "\"configurator\""
par wireless20Nodes.host1.ipv4.configurator configureRoutingTable true
[...]
bin	-0.04	0
bin	-0.02	0
bin	0	258
bin	0.02	0
bin	0.04	0
bin	0.06	0
bin	0.08	0
bin	0.1	0
bin	0.12	0
bin	0.14	0
bin	0.16	0
bin	0.18	0
bin	0.2	0
bin	0.22	0
bin	0.24	0
bin	0.26	0
bin	0.28	0
bin	0.3	0
bin	0.32	0
bin	0.34	0
bin	0.36	0
bin	0.38	0
bin	0.4	0
bin	0.42	0
bin	0.44	0
bin	0.46	0
bin	0.48	0
bin	0.5	0
statistic wireless20Nodes.host24.wlan[0].radio symbolErrorRate:histogram
field count 258
field mean 0
field stddev 0
field min 0
field max 0
field sum 0
field sqrsum 0
attr recordingmode histogram
attr source symbolErrorRate(packetSentToUpper)
attr title "Symbol error rate"
bin	-inf	0
bin	-0.5	0
bin	-0.48	0
bin	-0.46	0
bin	-0.44	0
bin	-0.42	0
bin	-0.4	0
bin	-0.38	0
bin	-0.36	0
bin	-0.34	0
bin	-0.32	0
bin	-0.3	0
bin	-0.28	0
bin	-0.26	0
bin	-0.24	0
bin	-0.22	0
bin	-0.2	0
bin	-0.18	0
bin	-0.16	0
bin	-0.14	0
bin	-0.12	0
bin	-0.1	0
bin	-0.08	0
bin	-0.06	0
bin	-0.04	0
bin	-0.02	0
bin	0	258
bin	0.02	0
bin	0.04	0
bin	0.06	0
bin	0.08	0
bin	0.1	0
bin	0.12	0
bin	0.14	0
bin	0.16	0
bin	0.18	0
bin	0.2	0
bin	0.22	0
bin	0.24	0
bin	0.26	0
bin	0.28	0
bin	0.3	0
bin	0.32	0
bin	0.34	0
bin	0.36	0
bin	0.38	0
bin	0.4	0
bin	0.42	0
bin	0.44	0
bin	0.46	0
bin	0.48	0
bin	0.5	0
scalar wireless20Nodes.host24.wlan[0].radio transmissionState:count 303
attr interpolationmode sample-hold
attr recordingmode count
attr source transmissionStateChanged
attr title "Radio transmission state, count"
scalar wireless20Nodes.host24.wlan[0].radio receptionState:count 517
attr interpolationmode sample-hold
attr recordingmode count
attr source receptionStateChanged
attr title "Radio reception state, count"
scalar wireless20Nodes.host24.wlan[0].radio radioMode:count 3
attr interpolationmode sample-hold
attr recordingmode count
attr source radioModeChanged
attr title "Radio mode, count"
par wireless20Nodes.host24.wlan[0] typename "\"inet.linklayer.acking.AckingWirelessInterface\""
par wireless20Nodes.host24.wlan[0] displayStringTextFormat "\"%a (%i)\\n%m\""
par wireless20Nodes.host24.wlan[0] recordPcap false
par wireless20Nodes.host24.wlan[0] numPcapRecorders 0
par wireless20Nodes.host24.wlan[0] interfaceTableModule "\"wireless20Nodes.host24.interfaceTable\""
par wireless20Nodes.host24.wlan[0] energySourceModule "\"\""
par wireless20Nodes.host24.wlan[0] bitrate 2e+06bps
attr unit bps
scalar wireless20Nodes.host24.wlan[0] packetDropInterfaceDown:count 0
attr interpolationmode none
attr recordingmode count
attr source packetDropReasonIsInterfaceDown(packetDropped)
attr title "packet drops: interface down, count"
scalar wireless20Nodes.host24.wlan[0] packetDropInterfaceDown:sum(packetBytes) 0
attr interpolationmode none
attr recordingmode sum(packetBytes)
attr source packetDropReasonIsInterfaceDown(packetDropped)
attr title "packet drops: interface down, sum(packetBytes)"
scalar wireless20Nodes.host24.wlan[0] packetDropNoCarrier:count 0
attr interpolationmode none
attr recordingmode count
attr source packetDropReasonIsNoCarrier(packetDropped)
attr title "packet drops: no carrier, count"
scalar wireless20Nodes.host24.wlan[0] packetDropNoCarrier:sum(packetBytes) 0
attr interpolationmode none
attr recordingmode sum(packetBytes)
attr source packetDropReasonIsNoCarrier(packetDropped)
attr title "packet drops: no carrier, sum(packetBytes)"
par wireless20Nodes.host24.ipv4.transportIn.channel typename "\"ned.IdealChannel\""
par wireless20Nodes.host24.ipv4.up.out[0].channel typename "\"ned.IdealChannel\""
par wireless20Nodes.host24.ipv4.lp.out[2].channel typename "\"ned.IdealChannel\""
par wireless20Nodes.host24.ipv4.ifIn.channel typename "\"ned.IdealChannel\""
par wireless20Nodes.host24.ipv4.configurator typename "\"inet.networklayer.configurator.ipv4.Ipv4NodeConfigurator\""
par wireless20Nodes.host24.ipv4.configurator interfaceTableModule "\"wireless20Nodes.host24.interfaceTable\""
par wireless20Nodes.host24.ipv4.configurator routingTableModule "\"wireless20Nodes.host24.ipv4.routingTable\""
par wireless20Nodes.host24.ipv4.configurator networkConfiguratorModule "\"configurator\""
par wireless20Nodes.host24.ipv4.configurator configureRoutingTable true
par wireless20Nodes.host24.ipv4.routingTable typename "\"inet.networklayer.ipv4.Ipv4RoutingTable\""
par wireless20Nodes.host24.ipv4.routingTable interfaceTableModule "\"wireless20Nodes.host24.interfaceTable\""
par wireless20Nodes.host24.ipv4.routingTable routerId "\"auto\""
par wireless20Nodes.host24.ipv4.routingTable netmaskRoutes "\"*\""
par wireless20Nodes.host24.ipv4.routingTable forwarding true
par wireless20Nodes.host24.ipv4.routingTable multicastForwarding false
par wireless20Nodes.host24.ipv4.routingTable useAdminDist false
par wireless20Nodes.host24.ipv4.routingTable routingFile "\"\""
par wireless20Nodes.host24.ipv4.natTable typename "\"inet.networklayer.ipv4.Ipv4NatTable\""
par wireless20Nodes.host24.ipv4.natTable networkProtocolModule "\"^.ip\""
par wireless20Nodes.host24.ipv4.natTable config "<config/> at content:1"
par wireless20Nodes.host24.ipv4.up typename "\"inet.common.MessageDispatcher\""
par wireless20Nodes.host24.ipv4.up displayStringTextFormat "\"processed %p pk (%l)\""
par wireless20Nodes.host24.ipv4.up forwardServiceRegistration true
par wireless20Nodes.host24.ipv4.up forwardProtocolRegistration true
par wireless20Nodes.host24.ipv4.igmp typename "\"inet.networklayer.ipv4.Igmpv2\""
par wireless20Nodes.host24.ipv4.igmp interfaceTableModule "\"wireless20Nodes.host24.interfaceTable\""
par wireless20Nodes.host24.ipv4.igmp routingTableModule "\"wireless20Nodes.host24.ipv4.routingTable\""
par wireless20Nodes.host24.ipv4.igmp crcMode "\"declared\""
attr enum declared,computed
par wireless20Nodes.host24.ipv4.igmp enabled true
par wireless20Nodes.host24.ipv4.igmp robustnessVariable 2
par wireless20Nodes.host24.ipv4.igmp queryInterval 125s
attr unit s
par wireless20Nodes.host24.ipv4.igmp queryResponseInterval 10s
attr unit s
par wireless20Nodes.host24.ipv4.igmp groupMembershipInterval 260s
attr unit s
par wireless20Nodes.host24.ipv4.igmp otherQuerierPresentInterval 255s
attr unit s
par wireless20Nodes.host24.ipv4.igmp startupQueryInterval 31.25s
attr unit s
par wireless20Nodes.host24.ipv4.igmp startupQueryCount 2
par wireless20Nodes.host24.ipv4.igmp lastMemberQueryInterval 1s
attr unit s
par wireless20Nodes.host24.ipv4.igmp lastMemberQueryCount 2
par wireless20Nodes.host24.ipv4.igmp unsolicitedReportInterval 10s
attr unit s
par wireless20Nodes.host24.ipv4.icmp typename "\"inet.networklayer.ipv4.Icmp\""
par wireless20Nodes.host24.ipv4.icmp interfaceTableModule "\"wireless20Nodes.host24.interfaceTable\""
par wireless20Nodes.host24.ipv4.icmp routingTableModule "\"wireless20Nodes.host24.ipv4.routingTable\""
par wireless20Nodes.host24.ipv4.icmp crcMode "\"declared\""
attr enum declared,computed
attr mutable ""
par wireless20Nodes.host24.ipv4.icmp quoteLength 8B
attr mutable ""
attr unit B
par wireless20Nodes.host24.ipv4.mp typename "\"inet.common.MessageDispatcher\""
par wireless20Nodes.host24.ipv4.mp displayStringTextFormat "\"processed %p pk (%l)\""
par wireless20Nodes.host24.ipv4.mp forwardServiceRegistration true
par wireless20Nodes.host24.ipv4.mp forwardProtocolRegistration true
par wireless20Nodes.host24.ipv4.ip typename "\"inet.networklayer.ipv4.Ipv4\""
par wireless20Nodes.host24.ipv4.ip interfaceTableModule "\"wireless20Nodes.host24.interfaceTable\""
par wireless20Nodes.host24.ipv4.ip routingTableModule "\"wireless20Nodes.host24.ipv4.routingTable\""
par wireless20Nodes.host24.ipv4.ip arpModule "\"wireless20Nodes.host24.ipv4.arp\""
par wireless20Nodes.host24.ipv4.ip icmpModule "\"wireless20Nodes.host24.ipv4.icmp\""
par wireless20Nodes.host24.ipv4.ip crcMode "\"declared\""
attr enum declared,computed
par wireless20Nodes.host24.ipv4.ip timeToLive 32
par wireless20Nodes.host24.ipv4.ip multicastTimeToLive 32
par wireless20Nodes.host24.ipv4.ip fragmentTimeout 60s
attr unit s
par wireless20Nodes.host24.ipv4.ip limitedBroadcast false
par wireless20Nodes.host24.ipv4.ip directBroadcastInterfaces "\"\""
scalar wireless20Nodes.host24.ipv4.ip packetDropAddressResolutionFailed:count 0
attr interpolationmode none
attr recordingmode count
attr source packetDropReasonIsAddressResolutionFailed(packetDropped)
attr title "packet drop: address resolution failed, count"
scalar wireless20Nodes.host24.ipv4.ip packetDropAddressResolutionFailed:sum(packetBytes) 0
attr interpolationmode none
attr recordingmode sum(packetBytes)
attr source packetDropReasonIsAddressResolutionFailed(packetDropped)
attr title "packet drop: address resolution failed, sum(packetBytes)"
scalar wireless20Nodes.host24.ipv4.ip packetDropHopLimitReached:count 0
attr interpolationmode none
attr recordingmode count
attr source packetDropReasonIsHopLimitReached(packetDropped)
attr title "packet drop: hop limit reached, count"
scalar wireless20Nodes.host24.ipv4.ip packetDropHopLimitReached:sum(packetBytes) 0
attr interpolationmode none
attr recordingmode sum(packetBytes)
attr source packetDropReasonIsHopLimitReached(packetDropped)
attr title "packet drop: hop limit reached, sum(packetBytes)"
scalar wireless20Nodes.host24.ipv4.ip packetDropForwardingDisabled:count 0
attr interpolationmode none
attr recordingmode count
attr source packetDropReasonIsForwardingDisabled(packetDropped)
attr title "packet drop: forwarding disabled, count"
scalar wireless20Nodes.host24.ipv4.ip packetDropForwardingDisabled:sum(packetBytes) 0
attr interpolationmode none
attr recordingmode sum(packetBytes)
attr source packetDropReasonIsForwardingDisabled(packetDropped)
attr title "packet drop: forwarding disabled, sum(packetBytes)"
scalar wireless20Nodes.host24.ipv4.ip packetDropNoInterfaceFound:count 0
attr interpolationmode none
attr recordingmode count
attr source packetDropReasonIsNoInterfaceFound(packetDropped)
attr title "packet drop: no interface found, count"
scalar wireless20Nodes.host24.ipv4.ip packetDropNoInterfaceFound:sum(packetBytes) 0
attr interpolationmode none
attr recordingmode sum(packetBytes)
attr source packetDropReasonIsNoInterfaceFound(packetDropped)
attr title "packet drop: no interface found, sum(packetBytes)"
scalar wireless20Nodes.host24.ipv4.ip packetDropNoRouteFound:count 0
attr interpolationmode none
attr recordingmode count
attr source packetDropReasonIsNoRouteFound(packetDropped)
attr title "packet drop: no route found, count"
scalar wireless20Nodes.host24.ipv4.ip packetDropNoRouteFound:sum(packetBytes) 0
attr interpolationmode none
attr recordingmode sum(packetBytes)
attr source packetDropReasonIsNoRouteFound(packetDropped)
attr title "packet drop: no route found, sum(packetBytes)"
scalar wireless20Nodes.host24.ipv4.ip packetDropUndefined:count 0
attr interpolationmode none
attr recordingmode count
attr source packetDropReasonIsUndefined(packetDropped)
attr title "packet drop: undefined, count"
scalar wireless20Nodes.host24.ipv4.ip packetDropUndefined:sum(packetBytes) 0
attr interpolationmode none
attr recordingmode sum(packetBytes)
attr source packetDropReasonIsUndefined(packetDropped)
attr title "packet drop: undefined, sum(packetBytes)"
par wireless20Nodes.host24.ipv4.arp typename "\"inet.networklayer.arp.ipv4.GlobalArp\""
par wireless20Nodes.host24.ipv4.arp interfaceTableModule "\"wireless20Nodes.host24.interfaceTable\""
par wireless20Nodes.host24.ipv4.arp addressType "\"ipv4\""
attr enum ipv4,ipv6,mac,moduleid,modulepath
par wireless20Nodes.host24.ipv4.lp typename "\"inet.common.MessageDispatcher\""
par wireless20Nodes.host24.ipv4.lp displayStringTextFormat "\"processed %p pk (%l)\""
par wireless20Nodes.host24.ipv4.lp forwardServiceRegistration true
par wireless20Nodes.host24.ipv4.lp forwardProtocolRegistration true
par wireless20Nodes.host24.ipv4 typename "\"inet.networklayer.ipv4.Ipv4NetworkLayer\""
par wireless20Nodes.host24.ipv4 forwarding true
par wireless20Nodes.host24.ipv4 multicastForwarding false
par wireless20Nodes.host24.ipv4 interfaceTableModule "\"wireless20Nodes.host24.interfaceTable\""
par wireless20Nodes.host24.ipv4 displayStringTextFormat "\"%i\""
par wireless20Nodes.host24.nl typename "\"inet.common.MessageDispatcher\""
par wireless20Nodes.host24.nl displayStringTextFormat "\"processed %p pk (%l)\""
par wireless20Nodes.host24.nl forwardServiceRegistration true
par wireless20Nodes.host24.nl forwardProtocolRegistration true
par wireless20Nodes.host24.udp typename "\"inet.transportlayer.udp.Udp\""
par wireless20Nodes.host24.udp interfaceTableModule "\"wireless20Nodes.host24.interfaceTable\""
par wireless20Nodes.host24.udp icmpModule "\"^.ipv4.icmp\""
par wireless20Nodes.host24.udp icmpv6Module "\"^.ipv6.icmpv6\""
par wireless20Nodes.host24.udp crcMode "\"declared\""
attr enum disabled,declared,computed
par wireless20Nodes.host24.udp defaultMulticastLoop true
scalar wireless20Nodes.host24.udp packetReceived:count 130
attr interpolationmode none
attr recordingmode count
attr source packetReceived
attr title "packets received, count"
scalar wireless20Nodes.host24.udp packetReceived:sum(packetBytes) 55888
attr interpolationmode none
attr recordingmode sum(packetBytes)
attr source packetReceived
attr title "packets received, sum(packetBytes)"
scalar wireless20Nodes.host24.udp packetSent:count 75
attr interpolationmode none
attr recordingmode count
attr source packetSent
attr title "packets sent, count"
scalar wireless20Nodes.host24.udp packetSent:sum(packetBytes) 2400
attr interpolationmode none
attr recordingmode sum(packetBytes)
attr source packetSent
attr title "packets sent, sum(packetBytes)"
scalar wireless20Nodes.host24.udp passedUpPk:count 77
attr interpolationmode none
attr recordingmode count
attr source packetSentToUpper
attr title "packets passed up, count"
scalar wireless20Nodes.host24.udp droppedPkWrongPort:count 53
attr interpolationmode none
attr recordingmode count
attr source packetDropReasonIsNoPortFound(packetDropped)
attr title "packets dropped (wrong port), count"
scalar wireless20Nodes.host24.udp droppedPkBadChecksum:count 0
attr interpolationmode none
attr recordingmode count
attr source packetDropReasonIsIncorrectlyReceived(packetDropped)
attr title "packets dropped (checksum error), count"
par wireless20Nodes.host24.tcp typename "\"inet.transportlayer.tcp.Tcp\""
par wireless20Nodes.host24.tcp crcMode "\"declared\""
attr enum declared,computed
par wireless20Nodes.host24.tcp advertisedWindow 7504
par wireless20Nodes.host24.tcp delayedAcksEnabled false
par wireless20Nodes.host24.tcp nagleEnabled true
par wireless20Nodes.host24.tcp limitedTransmitEnabled false
par wireless20Nodes.host24.tcp increasedIWEnabled false
par wireless20Nodes.host24.tcp sackSupport false
par wireless20Nodes.host24.tcp windowScalingSupport false
par wireless20Nodes.host24.tcp windowScalingFactor -1
par wireless20Nodes.host24.tcp timestampSupport false
par wireless20Nodes.host24.tcp mss 536
par wireless20Nodes.host24.tcp msl 120s
attr unit s
par wireless20Nodes.host24.tcp tcpAlgorithmClass "\"TcpReno\""
attr enum TcpVegas,TcpWestwood,TcpNewReno,TcpReno,TcpTahoe,TcpNoCongestionControl
par wireless20Nodes.host24.tcp useDataNotification false
par wireless20Nodes.host24.tcp dupthresh 3
par wireless20Nodes.host24.tcp initialSsthresh 4294967295
par wireless20Nodes.host24.tcp stopOperationExtraTime 0s
attr unit s
par wireless20Nodes.host24.tcp stopOperationTimeout 2s
attr unit s
par wireless20Nodes.host24.tcp ecnWillingness false
par wireless20Nodes.host24.tcp dctcpGamma 0.0625
par wireless20Nodes.host24.tn typename "\"inet.common.MessageDispatcher\""
par wireless20Nodes.host24.tn displayStringTextFormat "\"processed %p pk (%l)\""
par wireless20Nodes.host24.tn forwardServiceRegistration true
par wireless20Nodes.host24.tn forwardProtocolRegistration true
par wireless20Nodes.host24.at typename "\"inet.common.MessageDispatcher\""
par wireless20Nodes.host24.at displayStringTextFormat "\"processed %p pk (%l)\""
par wireless20Nodes.host24.at forwardServiceRegistration true
par wireless20Nodes.host24.at forwardProtocolRegistration true
par wireless20Nodes.host24.aodv typename "\"inet.routing.aodv.Aodv\""
par wireless20Nodes.host24.aodv routingTableModule "\"^.ipv4.routingTable\""
par wireless20Nodes.host24.aodv interfaceTableModule "\"wireless20Nodes.host24.interfaceTable\""
par wireless20Nodes.host24.aodv networkProtocolModule "\"^.ipv4.ip\""
par wireless20Nodes.host24.aodv askGratuitousRREP false
par wireless20Nodes.host24.aodv useHelloMessages false
par wireless20Nodes.host24.aodv useLocalRepair false
par wireless20Nodes.host24.aodv destinationOnlyFlag false
par wireless20Nodes.host24.aodv udpPort 654
par wireless20Nodes.host24.aodv interface "\"wlan0\""
par wireless20Nodes.host24.aodv maxPeriodicJitter 0.25s
attr unit s
par wireless20Nodes.host24.aodv periodicJitter "uniform(0s, maxPeriodicJitter)"
attr unit s
par wireless20Nodes.host24.aodv jitter "uniform(0ms, maxJitter)"
attr unit s
par wireless20Nodes.host24.aodv helloInterval 1s
attr unit s
par wireless20Nodes.host24.aodv allowedHelloLoss 2
par wireless20Nodes.host24.aodv activeRouteTimeout 3s
attr unit s
par wireless20Nodes.host24.aodv netDiameter 35
par wireless20Nodes.host24.aodv nodeTraversalTime 0.04s
attr unit s
par wireless20Nodes.host24.aodv rerrRatelimit 10
par wireless20Nodes.host24.aodv rreqRetries 0
par wireless20Nodes.host24.aodv rreqRatelimit 10
par wireless20Nodes.host24.aodv timeoutBuffer 2
par wireless20Nodes.host24.aodv ttlStart 24
par wireless20Nodes.host24.aodv ttlIncrement 2
par wireless20Nodes.host24.aodv ttlThreshold 7
par wireless20Nodes.host24.aodv localAddTTL 2
par wireless20Nodes.host24.aodv myRouteTimeout 6s
attr unit s
par wireless20Nodes.host24.aodv deletePeriod 15s
attr unit s
par wireless20Nodes.host24.aodv blacklistTimeout 0s
attr unit s
par wireless20Nodes.host24.aodv netTraversalTime 2.8s
attr unit s
par wireless20Nodes.host24.aodv nextHopWait 0.05s
attr unit s
par wireless20Nodes.host24.aodv pathDiscoveryTime 5.6s
attr unit s
par wireless20Nodes.host24.aodv outputInterface "\"wlan0\""
par wireless20Nodes.host24.aodv interfaces "\"*\""
par wireless20Nodes.host24.aodv beaconInterval 3s
attr unit s
par wireless20Nodes.host24.aodv maxJitter 1.5s
attr unit s
par wireless20Nodes.host24.aodv neighborValidityInterval 13.5s
attr unit s
par wireless20Nodes.host24.aodv positionByteLength 8B
attr unit B
par wireless20Nodes.host24.aodv displayBubbles false
statistic wireless20Nodes.host24.aodv Data_packets_Sent:stats
field count 53
field mean 27
field stddev 15.443445211481
field min 1
field max 53
field sum 1431
field sqrsum 51039
attr interpolationmode none
attr recordingmode stats
attr source DataPckSent
attr title "Data packets"
statistic wireless20Nodes.host24.aodv Control_packets:stats
field count 77
field mean 39
field stddev 22.371857321197
field min 1
field max 77
field sum 3003
field sqrsum 155155
attr interpolationmode none
attr recordingmode stats
attr source ctrlPckCount
attr title "Control packets"
par wireless20Nodes.host24 typename "\"inet.node.aodv.AodvRouter\""
par wireless20Nodes.host24 hasStatus false
par wireless20Nodes.host24 osgModel "\"\""
par wireless20Nodes.host24 osgModelColor "\"\""
par wireless20Nodes.host24 canvasImage "\"\""
par wireless20Nodes.host24 canvasImageColor "\"\""
par wireless20Nodes.host24 recordPcap false
par wireless20Nodes.host24 numPcapRecorders 0
par wireless20Nodes.host24 numLoInterfaces 1
par wireless20Nodes.host24 numWlanInterfaces 1
par wireless20Nodes.host24 numEthInterfaces 0
par wireless20Nodes.host24 numPppInterfaces 0
par wireless20Nodes.host24 numTunInterfaces 0
par wireless20Nodes.host24 numVirtInterfaces 0
par wireless20Nodes.host24 fcsMode "\"declared\""
attr enum declared,computed
par wireless20Nodes.host24 hasIpv4 true
par wireless20Nodes.host24 hasIpv6 false
par wireless20Nodes.host24 hasGn false
par wireless20Nodes.host24 forwarding true
par wireless20Nodes.host24 multicastForwarding false
par wireless20Nodes.host24 hasUdp true
par wireless20Nodes.host24 hasTcp true
par wireless20Nodes.host24 hasSctp false
par wireless20Nodes.host24 numApps 0
par wireless20Nodes typename "\"tacsim.simulations.Testing.wireless20Nodes\""

