version 3
run General-0-20240605-14:29:36-22756
attr configname General
attr datetime 20240605-14:29:36
attr datetimef 20240605-142936
attr experiment General
attr inifile Wireless96Nodes.ini
attr iterationvars ""
attr iterationvarsd ""
attr iterationvarsf ""
attr measurement ""
attr network wireless96Nodes
attr processid 22756
attr repetition 0
attr replication #0
attr resultdir results
attr runnumber 0
attr seedset 0
config image-path ../../../inet4.5/images
config network wireless96Nodes
config sim-time-limit 60s
config *.host*.ipv4.arp.typename GlobalArp
config *.host{1..96}.numApps 1
config *.host{1..96}.app[0].typename UdpBasicApp
config *.host{1..96}.app[0].destAddresses "\"host1 host2 host3 host4 host5 host6 host7 host8 host9 host10 host11 host12 host13 host14 host15 host16 host17 host18 host19 host20 host21 host22 host23 host24 host25 host26 host27 host28 host29 host30 host31 host32 host33 host34 host35 host36 host37 host38 host39 host40 host41 host42 host43 host44 host45 host46 host47 host48 host49 host50 host51 host52 host53 host54 host55 host56 host57 host58 host59 host60 host61 host62 host63 host64 host65 host66 host67 host68 host69 host70 host71 host72 host73 host74 host75 host76 host77 host78 host79 host80 host81 host82 host83 host84 host85 host86 host87 host88 host89 host90 host91 host92 host93 host94 host95 host96\""
config *.host{1..96}.app[0].destPort 5000
config *.host{1..96}.app[0].messageLength 10B
config *.host{1..96}.app[0].sendInterval exponential(100ms)
config *.host{1..96}.app[0].packetName "\"UDPData\""
config *.host{1..96}.app[0].startTime 5s
config **.wlan[*].typename AckingWirelessInterface
config **.wlan[*].bitrate 0.1Mbps
config **.wlan[*].mac.headerLength 23B
config **.wlan[*].radio.typename UnitDiskRadio
config **.wlan[*].radio.transmitter.headerLength 96b
config **.wlan[*].radio.transmitter.interferenceRange 0m
config **.wlan[*].radio.transmitter.detectionRange 0m
config **.wlan[*].radio.receiver.ignoreInterference true
config **.wlan[*].radio.transmitter.communicationRange 4000m
config *.host*.wlan[0].radio.displayCommunicationRange true
config **.host*.Control_packets.result-recording-modes +vector,+histogram
config **.host*.Data_packets_Sent.result-recording-modes +vector,+histogram
config **.host*.UDP_packets_Rcvd.result-recording-modes +vector,+histogram
config **.constraintAreaMinX 0m
config **.constraintAreaMaxX 20000m
config **.constraintAreaMinY 0m
config **.constraintAreaMaxY 20000m
config **.constraintAreaMinZ 0m
config **.constraintAreaMaxZ 0m
config **.aodv.rreqRetries 0
config **.aodv.ttlStart 96

par wireless96Nodes.visualizer.sceneVisualizer typename "\"inet.visualizer.canvas.scene.SceneCanvasVisualizer\""
par wireless96Nodes.visualizer.sceneVisualizer visualizationTargetModule "\"^.^\""
par wireless96Nodes.visualizer.sceneVisualizer visualizationSubjectModule "\"^.^\""
par wireless96Nodes.visualizer.sceneVisualizer tags "\"\""
par wireless96Nodes.visualizer.sceneVisualizer physicalEnvironmentModule "\"physicalEnvironment\""
par wireless96Nodes.visualizer.sceneVisualizer networkNodeVisualizerModule "\"^.networkNodeVisualizer\""
par wireless96Nodes.visualizer.sceneVisualizer axisLength "nan m"
attr mutable ""
attr unit m
par wireless96Nodes.visualizer.sceneVisualizer animationSpeed 0
par wireless96Nodes.visualizer.sceneVisualizer sceneMinX "nan m"
attr unit m
par wireless96Nodes.visualizer.sceneVisualizer sceneMinY "nan m"
attr unit m
par wireless96Nodes.visualizer.sceneVisualizer sceneMinZ "nan m"
attr unit m
par wireless96Nodes.visualizer.sceneVisualizer sceneMaxX "nan m"
attr unit m
par wireless96Nodes.visualizer.sceneVisualizer sceneMaxY "nan m"
attr unit m
par wireless96Nodes.visualizer.sceneVisualizer sceneMaxZ "nan m"
attr unit m
par wireless96Nodes.visualizer.sceneVisualizer zIndex 0
par wireless96Nodes.visualizer.sceneVisualizer viewAngle "\"x right y down z out\""
attr mutable ""
par wireless96Nodes.visualizer.sceneVisualizer viewScale "\"1 1\""
attr mutable ""
par wireless96Nodes.visualizer.sceneVisualizer viewTranslation "\"0 0\""
attr mutable ""
par wireless96Nodes.visualizer.sceneVisualizer descriptionFigure "\"\""
par wireless96Nodes.visualizer.physicalEnvironmentVisualizer typename "\"inet.visualizer.canvas.environment.PhysicalEnvironmentCanvasVisualizer\""
par wireless96Nodes.visualizer.physicalEnvironmentVisualizer visualizationTargetModule "\"^.^\""
par wireless96Nodes.visualizer.physicalEnvironmentVisualizer visualizationSubjectModule "\"^.^\""
par wireless96Nodes.visualizer.physicalEnvironmentVisualizer tags "\"\""
par wireless96Nodes.visualizer.physicalEnvironmentVisualizer physicalEnvironmentModule "\"physicalEnvironment\""
par wireless96Nodes.visualizer.physicalEnvironmentVisualizer displayObjects true
par wireless96Nodes.visualizer.physicalEnvironmentVisualizer zIndex 0
par wireless96Nodes.visualizer.networkNodeVisualizer typename "\"inet.visualizer.canvas.scene.NetworkNodeCanvasVisualizer\""
par wireless96Nodes.visualizer.networkNodeVisualizer visualizationTargetModule "\"^.^\""
par wireless96Nodes.visualizer.networkNodeVisualizer visualizationSubjectModule "\"^.^\""
par wireless96Nodes.visualizer.networkNodeVisualizer tags "\"\""
par wireless96Nodes.visualizer.networkNodeVisualizer nodeFilter "\"*\""
attr mutable ""
par wireless96Nodes.visualizer.networkNodeVisualizer annotationSpacing 4
par wireless96Nodes.visualizer.networkNodeVisualizer placementPenalty 10
par wireless96Nodes.visualizer.networkNodeVisualizer zIndex 0
par wireless96Nodes.visualizer.networkConnectionVisualizer typename "\"inet.visualizer.canvas.scene.NetworkConnectionCanvasVisualizer\""
par wireless96Nodes.visualizer.networkConnectionVisualizer visualizationTargetModule "\"^.^\""
par wireless96Nodes.visualizer.networkConnectionVisualizer visualizationSubjectModule "\"^.^\""
par wireless96Nodes.visualizer.networkConnectionVisualizer tags "\"\""
par wireless96Nodes.visualizer.networkConnectionVisualizer displayNetworkConnections true
par wireless96Nodes.visualizer.networkConnectionVisualizer nodeFilter "\"\""
attr mutable ""
par wireless96Nodes.visualizer.networkConnectionVisualizer lineColor "\"black\""
par wireless96Nodes.visualizer.networkConnectionVisualizer lineStyle "\"solid\""
par wireless96Nodes.visualizer.networkConnectionVisualizer lineWidth 1
par wireless96Nodes.visualizer.networkConnectionVisualizer zIndex 0
par wireless96Nodes.visualizer.mobilityVisualizer typename "\"inet.visualizer.canvas.mobility.MobilityCanvasVisualizer\""
par wireless96Nodes.visualizer.mobilityVisualizer visualizationTargetModule "\"^.^\""
par wireless96Nodes.visualizer.mobilityVisualizer visualizationSubjectModule "\"^.^\""
par wireless96Nodes.visualizer.mobilityVisualizer tags "\"\""
par wireless96Nodes.visualizer.mobilityVisualizer networkNodeVisualizerModule "\"^.networkNodeVisualizer\""
par wireless96Nodes.visualizer.mobilityVisualizer displayMobility true
par wireless96Nodes.visualizer.mobilityVisualizer animationSpeed 0
par wireless96Nodes.visualizer.mobilityVisualizer moduleFilter "\"**.mobility\""
attr mutable ""
par wireless96Nodes.visualizer.mobilityVisualizer displayPositions false
par wireless96Nodes.visualizer.mobilityVisualizer positionCircleRadius 4
par wireless96Nodes.visualizer.mobilityVisualizer positionCircleLineWidth 1
par wireless96Nodes.visualizer.mobilityVisualizer positionCircleLineColor "\"dark\""
attr enum light,dark
par wireless96Nodes.visualizer.mobilityVisualizer positionCircleFillColor "\"dark\""
attr enum light,dark
par wireless96Nodes.visualizer.mobilityVisualizer displayOrientations false
par wireless96Nodes.visualizer.mobilityVisualizer orientationPieRadius 32
par wireless96Nodes.visualizer.mobilityVisualizer orientationPieSize 0.2
par wireless96Nodes.visualizer.mobilityVisualizer orientationPieOpacity 0.25
par wireless96Nodes.visualizer.mobilityVisualizer orientationLineColor "\"black\""
par wireless96Nodes.visualizer.mobilityVisualizer orientationLineStyle "\"solid\""
par wireless96Nodes.visualizer.mobilityVisualizer orientationLineWidth 1
par wireless96Nodes.visualizer.mobilityVisualizer orientationFillColor "\"blue\""
par wireless96Nodes.visualizer.mobilityVisualizer displayVelocities false
par wireless96Nodes.visualizer.mobilityVisualizer velocityArrowScale 1
par wireless96Nodes.visualizer.mobilityVisualizer velocityLineColor "\"black\""
par wireless96Nodes.visualizer.mobilityVisualizer velocityLineStyle "\"solid\""
par wireless96Nodes.visualizer.mobilityVisualizer velocityLineWidth 1
par wireless96Nodes.visualizer.mobilityVisualizer displayMovementTrails false
par wireless96Nodes.visualizer.mobilityVisualizer movementTrailLineColor "\"dark\""
attr enum light,dark
par wireless96Nodes.visualizer.mobilityVisualizer movementTrailLineStyle "\"solid\""
par wireless96Nodes.visualizer.mobilityVisualizer movementTrailLineWidth 1
par wireless96Nodes.visualizer.mobilityVisualizer trailLength 100
par wireless96Nodes.visualizer.mobilityVisualizer zIndex 0
par wireless96Nodes.visualizer.statisticVisualizer typename "\"inet.visualizer.canvas.common.StatisticCanvasVisualizer\""
par wireless96Nodes.visualizer.statisticVisualizer visualizationTargetModule "\"^.^\""
par wireless96Nodes.visualizer.statisticVisualizer visualizationSubjectModule "\"^.^\""
par wireless96Nodes.visualizer.statisticVisualizer tags "\"\""
par wireless96Nodes.visualizer.statisticVisualizer networkNodeVisualizerModule "\"^.networkNodeVisualizer\""
par wireless96Nodes.visualizer.statisticVisualizer displayStatistics true
par wireless96Nodes.visualizer.statisticVisualizer signalName "\"\""
par wireless96Nodes.visualizer.statisticVisualizer statisticName "\"\""
par wireless96Nodes.visualizer.statisticVisualizer statisticUnit "\"\""
par wireless96Nodes.visualizer.statisticVisualizer statisticExpression "\"\""
par wireless96Nodes.visualizer.statisticVisualizer sourceFilter "\"**\""
attr mutable ""
par wireless96Nodes.visualizer.statisticVisualizer format "\"%n: %v %u\""
attr mutable ""
par wireless96Nodes.visualizer.statisticVisualizer unit "\"\""
par wireless96Nodes.visualizer.statisticVisualizer font "\"<default>\""
par wireless96Nodes.visualizer.statisticVisualizer textColor "\"black\""
par wireless96Nodes.visualizer.statisticVisualizer backgroundColor "\"white\""
par wireless96Nodes.visualizer.statisticVisualizer opacity 1
par wireless96Nodes.visualizer.statisticVisualizer placementHint "\"top\""
par wireless96Nodes.visualizer.statisticVisualizer placementPriority 0
par wireless96Nodes.visualizer.statisticVisualizer zIndex 10
par wireless96Nodes.visualizer.statisticVisualizer propertyName "\"\""
par wireless96Nodes.visualizer.statisticVisualizer propertyIndex "\"\""
par wireless96Nodes.visualizer.infoVisualizer typename "\"inet.visualizer.canvas.common.InfoCanvasVisualizer\""
par wireless96Nodes.visualizer.infoVisualizer visualizationTargetModule "\"^.^\""
par wireless96Nodes.visualizer.infoVisualizer visualizationSubjectModule "\"^.^\""
par wireless96Nodes.visualizer.infoVisualizer tags "\"\""
par wireless96Nodes.visualizer.infoVisualizer networkNodeVisualizerModule "\"^.networkNodeVisualizer\""
par wireless96Nodes.visualizer.infoVisualizer displayInfos true
par wireless96Nodes.visualizer.infoVisualizer modules "\"\""
attr mutable ""
par wireless96Nodes.visualizer.infoVisualizer format "\"%t\""
attr mutable ""
par wireless96Nodes.visualizer.infoVisualizer font "\"<default>\""
par wireless96Nodes.visualizer.infoVisualizer textColor "\"black\""
par wireless96Nodes.visualizer.infoVisualizer backgroundColor "\"white\""
par wireless96Nodes.visualizer.infoVisualizer opacity 1
par wireless96Nodes.visualizer.infoVisualizer placementHint "\"top\""
par wireless96Nodes.visualizer.infoVisualizer placementPriority 0
par wireless96Nodes.visualizer.infoVisualizer zIndex 10
par wireless96Nodes.visualizer.energyStorageVisualizer typename "\"inet.visualizer.canvas.power.EnergyStorageCanvasVisualizer\""
par wireless96Nodes.visualizer.energyStorageVisualizer visualizationTargetModule "\"^.^\""
par wireless96Nodes.visualizer.energyStorageVisualizer visualizationSubjectModule "\"^.^\""
par wireless96Nodes.visualizer.energyStorageVisualizer tags "\"\""
par wireless96Nodes.visualizer.energyStorageVisualizer networkNodeVisualizerModule "\"^.networkNodeVisualizer\""
par wireless96Nodes.visualizer.energyStorageVisualizer displayEnergyStorages false
par wireless96Nodes.visualizer.energyStorageVisualizer energyStorageFilter "\"**\""
par wireless96Nodes.visualizer.energyStorageVisualizer color "\"green\""
par wireless96Nodes.visualizer.energyStorageVisualizer width 8
par wireless96Nodes.visualizer.energyStorageVisualizer height 24
par wireless96Nodes.visualizer.energyStorageVisualizer spacing 2
par wireless96Nodes.visualizer.energyStorageVisualizer placementHint "\"right\""
par wireless96Nodes.visualizer.energyStorageVisualizer placementPriority 0
par wireless96Nodes.visualizer.energyStorageVisualizer zIndex 10
par wireless96Nodes.visualizer.mediumVisualizer typename "\"inet.visualizer.canvas.physicallayer.MediumCanvasVisualizer\""
par wireless96Nodes.visualizer.mediumVisualizer visualizationTargetModule "\"^.^\""
par wireless96Nodes.visualizer.mediumVisualizer visualizationSubjectModule "\"^.^\""
par wireless96Nodes.visualizer.mediumVisualizer tags "\"\""
par wireless96Nodes.visualizer.mediumVisualizer mediumModule "\"radioMedium\""
par wireless96Nodes.visualizer.mediumVisualizer networkNodeVisualizerModule "\"^.networkNodeVisualizer\""
par wireless96Nodes.visualizer.mediumVisualizer nodeFilter "\"*\""
attr mutable ""
par wireless96Nodes.visualizer.mediumVisualizer interfaceFilter "\"*\""
attr mutable ""
par wireless96Nodes.visualizer.mediumVisualizer packetFilter "(omnetpp::cValueHolder)holder: \"*\""
attr mutable ""
par wireless96Nodes.visualizer.mediumVisualizer displaySignals false
par wireless96Nodes.visualizer.mediumVisualizer signalColor "\"dark\""
attr enum light,dark
par wireless96Nodes.visualizer.mediumVisualizer signalPropagationAnimationSpeed "nan "
attr mutable ""
par wireless96Nodes.visualizer.mediumVisualizer signalPropagationAnimationTime 1s
attr unit s
par wireless96Nodes.visualizer.mediumVisualizer signalPropagationAdditionalTime 0s
attr unit s
par wireless96Nodes.visualizer.mediumVisualizer signalTransmissionAnimationSpeed "nan "
attr mutable ""
par wireless96Nodes.visualizer.mediumVisualizer signalTransmissionAnimationTime 1s
attr unit s
par wireless96Nodes.visualizer.mediumVisualizer signalAnimationSpeedChangeTimeMode "\"realTime\""
attr enum realTime,animationTime,simulationTime
par wireless96Nodes.visualizer.mediumVisualizer signalAnimationSpeedChangeTime 1s
attr unit s
par wireless96Nodes.visualizer.mediumVisualizer displaySignalDepartures false
par wireless96Nodes.visualizer.mediumVisualizer signalDepartureImage "\"misc/signal_departure.png\""
par wireless96Nodes.visualizer.mediumVisualizer signalDeparturePlacementHint "\"topCenter\""
par wireless96Nodes.visualizer.mediumVisualizer signalDeparturePlacementPriority 1
par wireless96Nodes.visualizer.mediumVisualizer displaySignalArrivals false
par wireless96Nodes.visualizer.mediumVisualizer signalArrivalImage "\"misc/signal_arrival.png\""
par wireless96Nodes.visualizer.mediumVisualizer signalArrivalPlacementHint "\"topCenter\""
par wireless96Nodes.visualizer.mediumVisualizer signalArrivalPlacementPriority -1
par wireless96Nodes.visualizer.mediumVisualizer displayCommunicationRanges false
par wireless96Nodes.visualizer.mediumVisualizer communicationRangeLineColor "\"blue\""
par wireless96Nodes.visualizer.mediumVisualizer communicationRangeLineStyle "\"solid\""
par wireless96Nodes.visualizer.mediumVisualizer communicationRangeLineWidth 1
par wireless96Nodes.visualizer.mediumVisualizer displayInterferenceRanges false
par wireless96Nodes.visualizer.mediumVisualizer interferenceRangeLineColor "\"gray\""
par wireless96Nodes.visualizer.mediumVisualizer interferenceRangeLineStyle "\"solid\""
par wireless96Nodes.visualizer.mediumVisualizer interferenceRangeLineWidth 1
par wireless96Nodes.visualizer.mediumVisualizer autoPowerAxis true
par wireless96Nodes.visualizer.mediumVisualizer signalMinPower "inf dBmW"
attr unit dBmW
par wireless96Nodes.visualizer.mediumVisualizer signalMaxPower 0dBmW
attr unit dBmW
par wireless96Nodes.visualizer.mediumVisualizer signalMinPowerDensity "inf dBmWpMHz"
attr unit dBmWpMHz
par wireless96Nodes.visualizer.mediumVisualizer signalMaxPowerDensity "-inf dBmWpMHz"
attr unit dBmWpMHz
par wireless96Nodes.visualizer.mediumVisualizer autoTimeAxis true
par wireless96Nodes.visualizer.mediumVisualizer signalMinTime 0s
attr unit s
par wireless96Nodes.visualizer.mediumVisualizer signalMaxTime 0s
attr unit s
par wireless96Nodes.visualizer.mediumVisualizer autoFrequencyAxis true
par wireless96Nodes.visualizer.mediumVisualizer signalMinFrequency "inf Hz"
attr unit Hz
par wireless96Nodes.visualizer.mediumVisualizer signalMaxFrequency "-inf Hz"
attr unit Hz
par wireless96Nodes.visualizer.mediumVisualizer displayMainPowerDensityMap false
par wireless96Nodes.visualizer.mediumVisualizer mainPowerDensityMapPixmapDensity 1
par wireless96Nodes.visualizer.mediumVisualizer mainPowerDensityMapMinX 0
par wireless96Nodes.visualizer.mediumVisualizer mainPowerDensityMapMaxX "nan "
par wireless96Nodes.visualizer.mediumVisualizer mainPowerDensityMapMinY 0
par wireless96Nodes.visualizer.mediumVisualizer mainPowerDensityMapMaxY "nan "
par wireless96Nodes.visualizer.mediumVisualizer mainPowerDensityMapZ 0
par wireless96Nodes.visualizer.mediumVisualizer mainPowerDensityMapFigureXTickCount 3
par wireless96Nodes.visualizer.mediumVisualizer mainPowerDensityMapFigureYTickCount 3
par wireless96Nodes.visualizer.mediumVisualizer displayPowerDensityMaps false
par wireless96Nodes.visualizer.mediumVisualizer powerDensityMapMode "\"auto\""
attr enum total,signal,auto
par wireless96Nodes.visualizer.mediumVisualizer powerDensityMapPixelMode "\"mean\""
attr enum sample,partition,mean
par wireless96Nodes.visualizer.mediumVisualizer powerDensityMapApproximationSize 10
par wireless96Nodes.visualizer.mediumVisualizer powerDensityMapCenterFrequency "nan Hz"
attr mutable ""
attr unit Hz
par wireless96Nodes.visualizer.mediumVisualizer powerDensityMapBandwidth 0Hz
attr mutable ""
attr unit Hz
par wireless96Nodes.visualizer.mediumVisualizer powerDensityMapFigureWidth 200
par wireless96Nodes.visualizer.mediumVisualizer powerDensityMapFigureHeight 120
par wireless96Nodes.visualizer.mediumVisualizer powerDensityMapPixmapWidth 200
par wireless96Nodes.visualizer.mediumVisualizer powerDensityMapPixmapHeight 120
par wireless96Nodes.visualizer.mediumVisualizer powerDensityMapZ 0
par wireless96Nodes.visualizer.mediumVisualizer powerDensityMapFigureXTickCount 3
par wireless96Nodes.visualizer.mediumVisualizer powerDensityMapFigureYTickCount 3
par wireless96Nodes.visualizer.mediumVisualizer displaySpectrums false
par wireless96Nodes.visualizer.mediumVisualizer spectrumMode "\"auto\""
attr enum total,signal,auto
par wireless96Nodes.visualizer.mediumVisualizer spectrumFigureWidth 200
par wireless96Nodes.visualizer.mediumVisualizer spectrumFigureHeight 120
par wireless96Nodes.visualizer.mediumVisualizer spectrumFigureXTickCount 3
par wireless96Nodes.visualizer.mediumVisualizer spectrumFigureYTickCount 5
par wireless96Nodes.visualizer.mediumVisualizer spectrumFigureInterpolationSize 5
par wireless96Nodes.visualizer.mediumVisualizer spectrumPlacementHint "\"bottomCenter\""
par wireless96Nodes.visualizer.mediumVisualizer spectrumPlacementPriority -1
par wireless96Nodes.visualizer.mediumVisualizer displaySpectrograms false
par wireless96Nodes.visualizer.mediumVisualizer spectrogramMode "\"auto\""
attr enum total,signal,auto
par wireless96Nodes.visualizer.mediumVisualizer spectrogramPixelMode "\"mean\""
attr enum sample,partition,mean
par wireless96Nodes.visualizer.mediumVisualizer spectrogramFigureWidth 200
par wireless96Nodes.visualizer.mediumVisualizer spectrogramFigureHeight 120
par wireless96Nodes.visualizer.mediumVisualizer spectrogramPixmapWidth 200
par wireless96Nodes.visualizer.mediumVisualizer spectrogramPixmapHeight 120
par wireless96Nodes.visualizer.mediumVisualizer spectrogramFigureXTickCount 3
par wireless96Nodes.visualizer.mediumVisualizer spectrogramFigureYTickCount 5
par wireless96Nodes.visualizer.mediumVisualizer spectrogramPlacementHint "\"bottomCenter\""
par wireless96Nodes.visualizer.mediumVisualizer spectrogramPlacementPriority -1
par wireless96Nodes.visualizer.mediumVisualizer zIndex 0
par wireless96Nodes.visualizer.mediumVisualizer signalShape "\"ring\""
attr enum ring,sphere
par wireless96Nodes.visualizer.mediumVisualizer signalOpacity 0.5
par wireless96Nodes.visualizer.mediumVisualizer signalRingCount 20
par wireless96Nodes.visualizer.mediumVisualizer signalRingSize 50m
attr unit m
par wireless96Nodes.visualizer.mediumVisualizer signalFadingDistance 50m
attr unit m
par wireless96Nodes.visualizer.mediumVisualizer signalFadingFactor 1.2
par wireless96Nodes.visualizer.mediumVisualizer signalWaveCount 20
par wireless96Nodes.visualizer.mediumVisualizer signalWaveLength 50m
attr unit m
par wireless96Nodes.visualizer.mediumVisualizer signalWaveWidth 10m
attr unit m
par wireless96Nodes.visualizer.mediumVisualizer signalWaveFadingAnimationSpeedFactor 1
par wireless96Nodes.visualizer.mediumVisualizer displayCommunicationHeat false
par wireless96Nodes.visualizer.obstacleLossVisualizer typename "\"inet.visualizer.canvas.physicallayer.TracingObstacleLossCanvasVisualizer\""
par wireless96Nodes.visualizer.obstacleLossVisualizer visualizationTargetModule "\"^.^\""
par wireless96Nodes.visualizer.obstacleLossVisualizer visualizationSubjectModule "\"^.^\""
par wireless96Nodes.visualizer.obstacleLossVisualizer tags "\"\""
par wireless96Nodes.visualizer.obstacleLossVisualizer displayIntersections false
par wireless96Nodes.visualizer.obstacleLossVisualizer intersectionLineColor "\"red\""
par wireless96Nodes.visualizer.obstacleLossVisualizer intersectionLineStyle "\"solid\""
par wireless96Nodes.visualizer.obstacleLossVisualizer intersectionLineWidth 1
par wireless96Nodes.visualizer.obstacleLossVisualizer displayFaceNormalVectors false
par wireless96Nodes.visualizer.obstacleLossVisualizer faceNormalLineColor "\"grey\""
par wireless96Nodes.visualizer.obstacleLossVisualizer faceNormalLineStyle "\"solid\""
par wireless96Nodes.visualizer.obstacleLossVisualizer faceNormalLineWidth 1
par wireless96Nodes.visualizer.obstacleLossVisualizer fadeOutMode "\"realTime\""
attr enum realTime,animationTime,simulationTime
par wireless96Nodes.visualizer.obstacleLossVisualizer fadeOutTime 1s
attr unit s
par wireless96Nodes.visualizer.obstacleLossVisualizer fadeOutAnimationSpeed 0
par wireless96Nodes.visualizer.obstacleLossVisualizer zIndex 0
par wireless96Nodes.visualizer.packetDropVisualizer typename "\"inet.visualizer.canvas.common.PacketDropCanvasVisualizer\""
par wireless96Nodes.visualizer.packetDropVisualizer visualizationTargetModule "\"^.^\""
par wireless96Nodes.visualizer.packetDropVisualizer visualizationSubjectModule "\"^.^\""
par wireless96Nodes.visualizer.packetDropVisualizer tags "\"\""
par wireless96Nodes.visualizer.packetDropVisualizer displayPacketDrops false
par wireless96Nodes.visualizer.packetDropVisualizer nodeFilter "\"*\""
attr mutable ""
par wireless96Nodes.visualizer.packetDropVisualizer interfaceFilter "\"*\""
attr mutable ""
par wireless96Nodes.visualizer.packetDropVisualizer packetFilter "(omnetpp::cValueHolder)holder: \"*\""
attr mutable ""
par wireless96Nodes.visualizer.packetDropVisualizer detailsFilter "\"*\""
attr mutable ""
par wireless96Nodes.visualizer.packetDropVisualizer icon "\"msg/packet_s\""
par wireless96Nodes.visualizer.packetDropVisualizer iconTintAmount 1
par wireless96Nodes.visualizer.packetDropVisualizer iconTintColor "\"dark\""
par wireless96Nodes.visualizer.packetDropVisualizer labelFormat "\"%n\""
attr mutable ""
par wireless96Nodes.visualizer.packetDropVisualizer labelFont "\"<default>\""
par wireless96Nodes.visualizer.packetDropVisualizer labelColor "\"black\""
par wireless96Nodes.visualizer.packetDropVisualizer fadeOutMode "\"realTime\""
attr enum realTime,animationTime,simulationTime
par wireless96Nodes.visualizer.packetDropVisualizer fadeOutTime 1s
attr unit s
par wireless96Nodes.visualizer.packetDropVisualizer fadeOutAnimationSpeed 0
par wireless96Nodes.visualizer.packetDropVisualizer zIndex 10
par wireless96Nodes.visualizer.packetDropVisualizer dx 32
par wireless96Nodes.visualizer.packetDropVisualizer dy 64
par wireless96Nodes.visualizer.packetFlowVisualizer typename "\"inet.visualizer.canvas.flow.PacketFlowCanvasVisualizer\""
par wireless96Nodes.visualizer.packetFlowVisualizer visualizationTargetModule "\"^.^\""
par wireless96Nodes.visualizer.packetFlowVisualizer visualizationSubjectModule "\"^.^\""
par wireless96Nodes.visualizer.packetFlowVisualizer tags "\"\""
par wireless96Nodes.visualizer.packetFlowVisualizer displayRoutes false
par wireless96Nodes.visualizer.packetFlowVisualizer startPathSignal "\"packetFlowStarted\""
par wireless96Nodes.visualizer.packetFlowVisualizer extendPathSignal "\"packetReceivedFromLower\""
par wireless96Nodes.visualizer.packetFlowVisualizer endPathSignal "\"packetFlowEnded\""
par wireless96Nodes.visualizer.packetFlowVisualizer nodeFilter "\"*\""
attr mutable ""
par wireless96Nodes.visualizer.packetFlowVisualizer packetFilter "(omnetpp::cValueHolder)holder: \"*\""
attr mutable ""
par wireless96Nodes.visualizer.packetFlowVisualizer lineColor "\"dark\""
attr enum light,dark
par wireless96Nodes.visualizer.packetFlowVisualizer lineStyle "\"dashed\""
par wireless96Nodes.visualizer.packetFlowVisualizer lineWidth 3
par wireless96Nodes.visualizer.packetFlowVisualizer lineSmooth false
par wireless96Nodes.visualizer.packetFlowVisualizer lineShift 16
par wireless96Nodes.visualizer.packetFlowVisualizer lineShiftMode "\"normal\""
par wireless96Nodes.visualizer.packetFlowVisualizer lineContactSpacing 3
par wireless96Nodes.visualizer.packetFlowVisualizer lineContactMode "\"rectangular\""
attr enum circular,rectangular
par wireless96Nodes.visualizer.packetFlowVisualizer labelFormat "\"%L %p pk (%l)\""
par wireless96Nodes.visualizer.packetFlowVisualizer labelFont "\"<default>, 8px\""
par wireless96Nodes.visualizer.packetFlowVisualizer labelColor "\"\""
par wireless96Nodes.visualizer.packetFlowVisualizer fadeOutMode "\"realTime\""
attr enum realTime,animationTime,simulationTime
par wireless96Nodes.visualizer.packetFlowVisualizer fadeOutTime 0s
attr unit s
par wireless96Nodes.visualizer.packetFlowVisualizer fadeOutAnimationSpeed 0
par wireless96Nodes.visualizer.packetFlowVisualizer zIndex 4
par wireless96Nodes.visualizer.queueVisualizer typename "\"inet.visualizer.canvas.common.QueueCanvasVisualizer\""
par wireless96Nodes.visualizer.queueVisualizer visualizationTargetModule "\"^.^\""
par wireless96Nodes.visualizer.queueVisualizer visualizationSubjectModule "\"^.^\""
par wireless96Nodes.visualizer.queueVisualizer tags "\"\""
par wireless96Nodes.visualizer.queueVisualizer networkNodeVisualizerModule "\"^.networkNodeVisualizer\""
par wireless96Nodes.visualizer.queueVisualizer displayQueues false
par wireless96Nodes.visualizer.queueVisualizer queueFilter "\"**\""
par wireless96Nodes.visualizer.queueVisualizer color "\"blue\""
par wireless96Nodes.visualizer.queueVisualizer width 8
par wireless96Nodes.visualizer.queueVisualizer height 24
par wireless96Nodes.visualizer.queueVisualizer spacing 2
par wireless96Nodes.visualizer.queueVisualizer placementHint "\"right\""
par wireless96Nodes.visualizer.queueVisualizer placementPriority 0
par wireless96Nodes.visualizer.queueVisualizer zIndex 10
par wireless96Nodes.visualizer.gateScheduleVisualizer typename "\"inet.visualizer.canvas.common.GateScheduleCanvasVisualizer\""
par wireless96Nodes.visualizer.gateScheduleVisualizer visualizationTargetModule "\"^.^\""
par wireless96Nodes.visualizer.gateScheduleVisualizer visualizationSubjectModule "\"^.^\""
par wireless96Nodes.visualizer.gateScheduleVisualizer tags "\"\""
par wireless96Nodes.visualizer.gateScheduleVisualizer networkNodeVisualizerModule "\"^.networkNodeVisualizer\""
par wireless96Nodes.visualizer.gateScheduleVisualizer displayGateSchedules false
par wireless96Nodes.visualizer.gateScheduleVisualizer labelFormat "\"%i %D\""
par wireless96Nodes.visualizer.gateScheduleVisualizer gateFilter "\"**\""
par wireless96Nodes.visualizer.gateScheduleVisualizer width 100
par wireless96Nodes.visualizer.gateScheduleVisualizer height 8
par wireless96Nodes.visualizer.gateScheduleVisualizer spacing 2
par wireless96Nodes.visualizer.gateScheduleVisualizer placementHint "\"right\""
par wireless96Nodes.visualizer.gateScheduleVisualizer placementPriority 0
par wireless96Nodes.visualizer.gateScheduleVisualizer displayDuration 0s
attr mutable ""
attr unit s
par wireless96Nodes.visualizer.gateScheduleVisualizer currentTimePosition 50
par wireless96Nodes.visualizer.gateScheduleVisualizer zIndex 10
par wireless96Nodes.visualizer.radioVisualizer typename "\"inet.visualizer.canvas.physicallayer.RadioCanvasVisualizer\""
par wireless96Nodes.visualizer.radioVisualizer visualizationTargetModule "\"^.^\""
par wireless96Nodes.visualizer.radioVisualizer visualizationSubjectModule "\"^.^\""
par wireless96Nodes.visualizer.radioVisualizer tags "\"\""
par wireless96Nodes.visualizer.radioVisualizer networkNodeVisualizerModule "\"^.networkNodeVisualizer\""
par wireless96Nodes.visualizer.radioVisualizer displayRadios false
par wireless96Nodes.visualizer.radioVisualizer displayRadioMode true
par wireless96Nodes.visualizer.radioVisualizer displayReceptionState true
par wireless96Nodes.visualizer.radioVisualizer displayTransmissionState true
par wireless96Nodes.visualizer.radioVisualizer displayAntennaLobes false
par wireless96Nodes.visualizer.radioVisualizer radioFilter "\"**\""
attr mutable ""
par wireless96Nodes.visualizer.radioVisualizer radioModeImages "\"block/process_vs block/timer_vs block/wrx_vs block/wtx_vs block/wrxtx_vs block/cogwheel_vs\""
par wireless96Nodes.visualizer.radioVisualizer receptionStateImages "\"- - misc/receiving misc/receiving\""
par wireless96Nodes.visualizer.radioVisualizer transmissionStateImages "\"- - misc/transmitting\""
par wireless96Nodes.visualizer.radioVisualizer width 16
par wireless96Nodes.visualizer.radioVisualizer height 16
par wireless96Nodes.visualizer.radioVisualizer placementHint "\"bottomRight\""
par wireless96Nodes.visualizer.radioVisualizer placementPriority 0
par wireless96Nodes.visualizer.radioVisualizer antennaLobeNormalize false
par wireless96Nodes.visualizer.radioVisualizer antennaLobeRelativeLabels false
par wireless96Nodes.visualizer.radioVisualizer antennaLobePlaneGlobal true
par wireless96Nodes.visualizer.radioVisualizer antennaLobePlane "\"view\""
attr enum view,xy,xz,yz
par wireless96Nodes.visualizer.radioVisualizer antennaLobeMode "\"logarithmic\""
attr enum logarithmic,linear
par wireless96Nodes.visualizer.radioVisualizer antennaLobeLogarithmicBase 10
par wireless96Nodes.visualizer.radioVisualizer antennaLobeLogarithmicScale 100
par wireless96Nodes.visualizer.radioVisualizer antennaLobeRadius 100
par wireless96Nodes.visualizer.radioVisualizer antennaLobeStep 10deg
attr unit deg
par wireless96Nodes.visualizer.radioVisualizer antennaLobeOpacity 0.25
par wireless96Nodes.visualizer.radioVisualizer antennaLobeLineSmooth true
par wireless96Nodes.visualizer.radioVisualizer antennaLobeLineColor "\"black\""
par wireless96Nodes.visualizer.radioVisualizer antennaLobeLineStyle "\"solid\""
par wireless96Nodes.visualizer.radioVisualizer antennaLobeLineWidth 1
par wireless96Nodes.visualizer.radioVisualizer antennaLobeFillColor "\"white\""
par wireless96Nodes.visualizer.radioVisualizer zIndex 10
par wireless96Nodes.visualizer.physicalLinkVisualizer typename "\"inet.visualizer.canvas.physicallayer.PhysicalLinkCanvasVisualizer\""
par wireless96Nodes.visualizer.physicalLinkVisualizer visualizationTargetModule "\"^.^\""
par wireless96Nodes.visualizer.physicalLinkVisualizer visualizationSubjectModule "\"^.^\""
par wireless96Nodes.visualizer.physicalLinkVisualizer tags "\"\""
par wireless96Nodes.visualizer.physicalLinkVisualizer displayLinks false
par wireless96Nodes.visualizer.physicalLinkVisualizer activityLevel "\"service\""
attr enum service,peer,protocol
par wireless96Nodes.visualizer.physicalLinkVisualizer nodeFilter "\"*\""
attr mutable ""
par wireless96Nodes.visualizer.physicalLinkVisualizer interfaceFilter "\"*\""
attr mutable ""
par wireless96Nodes.visualizer.physicalLinkVisualizer packetFilter "(omnetpp::cValueHolder)holder: \"*\""
attr mutable ""
par wireless96Nodes.visualizer.physicalLinkVisualizer lineColor "\"olive\""
par wireless96Nodes.visualizer.physicalLinkVisualizer lineStyle "\"dotted\""
par wireless96Nodes.visualizer.physicalLinkVisualizer lineWidth 3
par wireless96Nodes.visualizer.physicalLinkVisualizer lineShift 16
par wireless96Nodes.visualizer.physicalLinkVisualizer lineShiftMode "\"normal\""
par wireless96Nodes.visualizer.physicalLinkVisualizer lineContactSpacing 3
par wireless96Nodes.visualizer.physicalLinkVisualizer lineContactMode "\"rectangular\""
attr enum circular,rectangular
par wireless96Nodes.visualizer.physicalLinkVisualizer labelFormat "\"%n\""
par wireless96Nodes.visualizer.physicalLinkVisualizer labelFont "\"<default>, 8px\""
par wireless96Nodes.visualizer.physicalLinkVisualizer labelColor "\"olive\""
par wireless96Nodes.visualizer.physicalLinkVisualizer fadeOutMode "\"realTime\""
attr enum realTime,animationTime,simulationTime
par wireless96Nodes.visualizer.physicalLinkVisualizer fadeOutTime 1s
attr unit s
par wireless96Nodes.visualizer.physicalLinkVisualizer fadeOutAnimationSpeed 0
par wireless96Nodes.visualizer.physicalLinkVisualizer holdAnimationTime 0s
attr unit s
par wireless96Nodes.visualizer.physicalLinkVisualizer zIndex 1
par wireless96Nodes.visualizer.interfaceTableVisualizer typename "\"inet.visualizer.canvas.linklayer.InterfaceTableCanvasVisualizer\""
par wireless96Nodes.visualizer.interfaceTableVisualizer visualizationTargetModule "\"^.^\""
par wireless96Nodes.visualizer.interfaceTableVisualizer visualizationSubjectModule "\"^.^\""
par wireless96Nodes.visualizer.interfaceTableVisualizer tags "\"\""
par wireless96Nodes.visualizer.interfaceTableVisualizer networkNodeVisualizerModule "\"^.networkNodeVisualizer\""
par wireless96Nodes.visualizer.interfaceTableVisualizer displayInterfaceTables false
par wireless96Nodes.visualizer.interfaceTableVisualizer displayWiredInterfacesAtConnections true
par wireless96Nodes.visualizer.interfaceTableVisualizer displayBackground false
par wireless96Nodes.visualizer.interfaceTableVisualizer nodeFilter "\"*\""
attr mutable ""
par wireless96Nodes.visualizer.interfaceTableVisualizer interfaceFilter "\"not(lo*)\""
attr mutable ""
par wireless96Nodes.visualizer.interfaceTableVisualizer format "\"%N %\\\\%a%/%l\""
attr mutable ""
par wireless96Nodes.visualizer.interfaceTableVisualizer placementHint "\"top\""
par wireless96Nodes.visualizer.interfaceTableVisualizer placementPriority 0
par wireless96Nodes.visualizer.interfaceTableVisualizer font "\"<default>\""
par wireless96Nodes.visualizer.interfaceTableVisualizer textColor "\"#005030\""
par wireless96Nodes.visualizer.interfaceTableVisualizer backgroundColor "\"white\""
par wireless96Nodes.visualizer.interfaceTableVisualizer opacity 1
par wireless96Nodes.visualizer.interfaceTableVisualizer zIndex 10
par wireless96Nodes.visualizer.dataLinkVisualizer typename "\"inet.visualizer.canvas.linklayer.DataLinkCanvasVisualizer\""
par wireless96Nodes.visualizer.dataLinkVisualizer visualizationTargetModule "\"^.^\""
par wireless96Nodes.visualizer.dataLinkVisualizer visualizationSubjectModule "\"^.^\""
par wireless96Nodes.visualizer.dataLinkVisualizer tags "\"\""
par wireless96Nodes.visualizer.dataLinkVisualizer displayLinks false
par wireless96Nodes.visualizer.dataLinkVisualizer activityLevel "\"service\""
attr enum service,peer,protocol
par wireless96Nodes.visualizer.dataLinkVisualizer nodeFilter "\"*\""
attr mutable ""
par wireless96Nodes.visualizer.dataLinkVisualizer interfaceFilter "\"*\""
attr mutable ""
par wireless96Nodes.visualizer.dataLinkVisualizer packetFilter "(omnetpp::cValueHolder)holder: \"*\""
attr mutable ""
par wireless96Nodes.visualizer.dataLinkVisualizer lineColor "\"darkcyan\""
par wireless96Nodes.visualizer.dataLinkVisualizer lineStyle "\"solid\""
par wireless96Nodes.visualizer.dataLinkVisualizer lineWidth 3
par wireless96Nodes.visualizer.dataLinkVisualizer lineShift 16
par wireless96Nodes.visualizer.dataLinkVisualizer lineShiftMode "\"normal\""
par wireless96Nodes.visualizer.dataLinkVisualizer lineContactSpacing 3
par wireless96Nodes.visualizer.dataLinkVisualizer lineContactMode "\"rectangular\""
attr enum circular,rectangular
par wireless96Nodes.visualizer.dataLinkVisualizer labelFormat "\"%n\""
par wireless96Nodes.visualizer.dataLinkVisualizer labelFont "\"<default>, 8px\""
par wireless96Nodes.visualizer.dataLinkVisualizer labelColor "\"darkcyan\""
par wireless96Nodes.visualizer.dataLinkVisualizer fadeOutMode "\"realTime\""
attr enum realTime,animationTime,simulationTime
par wireless96Nodes.visualizer.dataLinkVisualizer fadeOutTime 1s
attr unit s
par wireless96Nodes.visualizer.dataLinkVisualizer fadeOutAnimationSpeed 0
par wireless96Nodes.visualizer.dataLinkVisualizer holdAnimationTime 0s
attr unit s
par wireless96Nodes.visualizer.dataLinkVisualizer zIndex 2
par wireless96Nodes.visualizer.linkBreakVisualizer typename "\"inet.visualizer.canvas.linklayer.LinkBreakCanvasVisualizer\""
par wireless96Nodes.visualizer.linkBreakVisualizer visualizationTargetModule "\"^.^\""
par wireless96Nodes.visualizer.linkBreakVisualizer visualizationSubjectModule "\"^.^\""
par wireless96Nodes.visualizer.linkBreakVisualizer tags "\"\""
par wireless96Nodes.visualizer.linkBreakVisualizer displayLinkBreaks false
par wireless96Nodes.visualizer.linkBreakVisualizer nodeFilter "\"*\""
attr mutable ""
par wireless96Nodes.visualizer.linkBreakVisualizer interfaceFilter "\"*\""
attr mutable ""
par wireless96Nodes.visualizer.linkBreakVisualizer packetFilter "(omnetpp::cValueHolder)holder: \"*\""
attr mutable ""
par wireless96Nodes.visualizer.linkBreakVisualizer icon "\"status/stop\""
par wireless96Nodes.visualizer.linkBreakVisualizer iconTintAmount 0
par wireless96Nodes.visualizer.linkBreakVisualizer iconTintColor "\"\""
par wireless96Nodes.visualizer.linkBreakVisualizer fadeOutMode "\"realTime\""
attr enum realTime,animationTime,simulationTime
par wireless96Nodes.visualizer.linkBreakVisualizer fadeOutTime 1s
attr unit s
par wireless96Nodes.visualizer.linkBreakVisualizer fadeOutAnimationSpeed 0
par wireless96Nodes.visualizer.linkBreakVisualizer zIndex 2
par wireless96Nodes.visualizer.ieee80211Visualizer typename "\"inet.visualizer.canvas.linklayer.Ieee80211CanvasVisualizer\""
par wireless96Nodes.visualizer.ieee80211Visualizer visualizationTargetModule "\"^.^\""
par wireless96Nodes.visualizer.ieee80211Visualizer visualizationSubjectModule "\"^.^\""
par wireless96Nodes.visualizer.ieee80211Visualizer tags "\"\""
par wireless96Nodes.visualizer.ieee80211Visualizer networkNodeVisualizerModule "\"^.networkNodeVisualizer\""
par wireless96Nodes.visualizer.ieee80211Visualizer displayAssociations false
par wireless96Nodes.visualizer.ieee80211Visualizer nodeFilter "\"*\""
attr mutable ""
par wireless96Nodes.visualizer.ieee80211Visualizer interfaceFilter "\"*\""
attr mutable ""
par wireless96Nodes.visualizer.ieee80211Visualizer minPower -85dBm
attr unit dBm
par wireless96Nodes.visualizer.ieee80211Visualizer maxPower -50dBm
attr unit dBm
par wireless96Nodes.visualizer.ieee80211Visualizer icons "\"misc/signal_power_0 misc/signal_power_1 misc/signal_power_2 misc/signal_power_3\""
par wireless96Nodes.visualizer.ieee80211Visualizer iconColor "\"dark\""
attr enum light,dark
par wireless96Nodes.visualizer.ieee80211Visualizer labelFont "\"<default>\""
par wireless96Nodes.visualizer.ieee80211Visualizer labelColor "\"black\""
par wireless96Nodes.visualizer.ieee80211Visualizer placementHint "\"top\""
par wireless96Nodes.visualizer.ieee80211Visualizer placementPriority 0
par wireless96Nodes.visualizer.ieee80211Visualizer zIndex 2
par wireless96Nodes.visualizer.networkRouteVisualizer typename "\"inet.visualizer.canvas.networklayer.NetworkRouteCanvasVisualizer\""
par wireless96Nodes.visualizer.networkRouteVisualizer visualizationTargetModule "\"^.^\""
par wireless96Nodes.visualizer.networkRouteVisualizer visualizationSubjectModule "\"^.^\""
par wireless96Nodes.visualizer.networkRouteVisualizer tags "\"\""
par wireless96Nodes.visualizer.networkRouteVisualizer displayRoutes false
par wireless96Nodes.visualizer.networkRouteVisualizer startPathSignal "\"packetReceivedFromUpper\""
par wireless96Nodes.visualizer.networkRouteVisualizer extendPathSignal "\"packetReceivedFromLower\""
par wireless96Nodes.visualizer.networkRouteVisualizer endPathSignal "\"packetSentToUpper\""
par wireless96Nodes.visualizer.networkRouteVisualizer nodeFilter "\"*\""
attr mutable ""
par wireless96Nodes.visualizer.networkRouteVisualizer packetFilter "(omnetpp::cValueHolder)holder: \"*\""
attr mutable ""
par wireless96Nodes.visualizer.networkRouteVisualizer lineColor "\"dark\""
attr enum light,dark
par wireless96Nodes.visualizer.networkRouteVisualizer lineStyle "\"solid\""
par wireless96Nodes.visualizer.networkRouteVisualizer lineWidth 3
par wireless96Nodes.visualizer.networkRouteVisualizer lineSmooth false
par wireless96Nodes.visualizer.networkRouteVisualizer lineShift 16
par wireless96Nodes.visualizer.networkRouteVisualizer lineShiftMode "\"normal\""
par wireless96Nodes.visualizer.networkRouteVisualizer lineContactSpacing 3
par wireless96Nodes.visualizer.networkRouteVisualizer lineContactMode "\"rectangular\""
attr enum circular,rectangular
par wireless96Nodes.visualizer.networkRouteVisualizer labelFormat "\"%n\""
par wireless96Nodes.visualizer.networkRouteVisualizer labelFont "\"<default>, 8px\""
par wireless96Nodes.visualizer.networkRouteVisualizer labelColor "\"\""
par wireless96Nodes.visualizer.networkRouteVisualizer fadeOutMode "\"realTime\""
attr enum realTime,animationTime,simulationTime
par wireless96Nodes.visualizer.networkRouteVisualizer fadeOutTime 1s
attr unit s
par wireless96Nodes.visualizer.networkRouteVisualizer fadeOutAnimationSpeed 0
par wireless96Nodes.visualizer.networkRouteVisualizer zIndex 3
par wireless96Nodes.visualizer.routingTableVisualizer typename "\"inet.visualizer.canvas.networklayer.RoutingTableCanvasVisualizer\""
par wireless96Nodes.visualizer.routingTableVisualizer visualizationTargetModule "\"^.^\""
par wireless96Nodes.visualizer.routingTableVisualizer visualizationSubjectModule "\"^.^\""
par wireless96Nodes.visualizer.routingTableVisualizer tags "\"\""
par wireless96Nodes.visualizer.routingTableVisualizer displayRoutingTables false
par wireless96Nodes.visualizer.routingTableVisualizer displayRoutesIndividually true
par wireless96Nodes.visualizer.routingTableVisualizer displayLabels true
par wireless96Nodes.visualizer.routingTableVisualizer destinationFilter "\"*\""
attr mutable ""
par wireless96Nodes.visualizer.routingTableVisualizer nodeFilter "\"*\""
attr mutable ""
par wireless96Nodes.visualizer.routingTableVisualizer lineColor "\"black\""
par wireless96Nodes.visualizer.routingTableVisualizer lineStyle "\"solid\""
par wireless96Nodes.visualizer.routingTableVisualizer lineWidth 2
par wireless96Nodes.visualizer.routingTableVisualizer lineShift 16
par wireless96Nodes.visualizer.routingTableVisualizer lineShiftMode "\"normal\""
par wireless96Nodes.visualizer.routingTableVisualizer lineContactSpacing 3
par wireless96Nodes.visualizer.routingTableVisualizer lineContactMode "\"rectangular\""
attr enum circular,rectangular
par wireless96Nodes.visualizer.routingTableVisualizer labelFormat "\"%d/%m -> %g (%n)\""
attr mutable ""
par wireless96Nodes.visualizer.routingTableVisualizer labelFont "\"<default>, 8px\""
par wireless96Nodes.visualizer.routingTableVisualizer labelColor "\"black\""
par wireless96Nodes.visualizer.routingTableVisualizer zIndex 0
par wireless96Nodes.visualizer.transportRouteVisualizer typename "\"inet.visualizer.canvas.transportlayer.TransportRouteCanvasVisualizer\""
par wireless96Nodes.visualizer.transportRouteVisualizer visualizationTargetModule "\"^.^\""
par wireless96Nodes.visualizer.transportRouteVisualizer visualizationSubjectModule "\"^.^\""
par wireless96Nodes.visualizer.transportRouteVisualizer tags "\"\""
par wireless96Nodes.visualizer.transportRouteVisualizer displayRoutes false
par wireless96Nodes.visualizer.transportRouteVisualizer startPathSignal "\"packetReceivedFromUpper\""
par wireless96Nodes.visualizer.transportRouteVisualizer extendPathSignal "\"packetReceivedFromLower\""
par wireless96Nodes.visualizer.transportRouteVisualizer endPathSignal "\"packetSentToUpper\""
par wireless96Nodes.visualizer.transportRouteVisualizer nodeFilter "\"*\""
attr mutable ""
par wireless96Nodes.visualizer.transportRouteVisualizer packetFilter "(omnetpp::cValueHolder)holder: \"*\""
attr mutable ""
par wireless96Nodes.visualizer.transportRouteVisualizer lineColor "\"dark\""
attr enum light,dark
par wireless96Nodes.visualizer.transportRouteVisualizer lineStyle "\"solid\""
par wireless96Nodes.visualizer.transportRouteVisualizer lineWidth 3
par wireless96Nodes.visualizer.transportRouteVisualizer lineSmooth false
par wireless96Nodes.visualizer.transportRouteVisualizer lineShift 16
par wireless96Nodes.visualizer.transportRouteVisualizer lineShiftMode "\"normal\""
par wireless96Nodes.visualizer.transportRouteVisualizer lineContactSpacing 3
par wireless96Nodes.visualizer.transportRouteVisualizer lineContactMode "\"rectangular\""
attr enum circular,rectangular
par wireless96Nodes.visualizer.transportRouteVisualizer labelFormat "\"%n\""
par wireless96Nodes.visualizer.transportRouteVisualizer labelFont "\"<default>, 8px\""
par wireless96Nodes.visualizer.transportRouteVisualizer labelColor "\"\""
par wireless96Nodes.visualizer.transportRouteVisualizer fadeOutMode "\"realTime\""
attr enum realTime,animationTime,simulationTime
par wireless96Nodes.visualizer.transportRouteVisualizer fadeOutTime 1s
attr unit s
par wireless96Nodes.visualizer.transportRouteVisualizer fadeOutAnimationSpeed 0
par wireless96Nodes.visualizer.transportRouteVisualizer zIndex 4
par wireless96Nodes.visualizer.transportConnectionVisualizer typename "\"inet.visualizer.canvas.transportlayer.TransportConnectionCanvasVisualizer\""
par wireless96Nodes.visualizer.transportConnectionVisualizer visualizationTargetModule "\"^.^\""
par wireless96Nodes.visualizer.transportConnectionVisualizer visualizationSubjectModule "\"^.^\""
par wireless96Nodes.visualizer.transportConnectionVisualizer tags "\"\""
par wireless96Nodes.visualizer.transportConnectionVisualizer networkNodeVisualizerModule "\"^.networkNodeVisualizer\""
par wireless96Nodes.visualizer.transportConnectionVisualizer displayTransportConnections false
par wireless96Nodes.visualizer.transportConnectionVisualizer sourceNodeFilter "\"*\""
attr mutable ""
par wireless96Nodes.visualizer.transportConnectionVisualizer sourcePortFilter "\"*\""
attr mutable ""
par wireless96Nodes.visualizer.transportConnectionVisualizer destinationNodeFilter "\"*\""
attr mutable ""
par wireless96Nodes.visualizer.transportConnectionVisualizer destinationPortFilter "\"*\""
attr mutable ""
par wireless96Nodes.visualizer.transportConnectionVisualizer icon "\"misc/marker_s\""
par wireless96Nodes.visualizer.transportConnectionVisualizer iconColor "\"dark\""
attr enum light,dark
par wireless96Nodes.visualizer.transportConnectionVisualizer labelFont "\"<default>\""
par wireless96Nodes.visualizer.transportConnectionVisualizer labelColor "\"black\""
par wireless96Nodes.visualizer.transportConnectionVisualizer placementHint "\"top\""
par wireless96Nodes.visualizer.transportConnectionVisualizer placementPriority 0
par wireless96Nodes.visualizer.transportConnectionVisualizer zIndex 4
par wireless96Nodes.visualizer.failureProtectionConfigurationVisualizer typename "\"inet.visualizer.canvas.configurator.FailureProtectionConfigurationCanvasVisualizer\""
par wireless96Nodes.visualizer.failureProtectionConfigurationVisualizer visualizationTargetModule "\"^.^\""
par wireless96Nodes.visualizer.failureProtectionConfigurationVisualizer visualizationSubjectModule "\"^.^\""
par wireless96Nodes.visualizer.failureProtectionConfigurationVisualizer tags "\"\""
par wireless96Nodes.visualizer.failureProtectionConfigurationVisualizer displayTrees false
par wireless96Nodes.visualizer.failureProtectionConfigurationVisualizer lineColor "\"dark\""
attr enum light,dark
par wireless96Nodes.visualizer.failureProtectionConfigurationVisualizer lineStyle "\"solid\""
par wireless96Nodes.visualizer.failureProtectionConfigurationVisualizer lineWidth 3
par wireless96Nodes.visualizer.failureProtectionConfigurationVisualizer lineSmooth false
par wireless96Nodes.visualizer.failureProtectionConfigurationVisualizer lineShift 16
par wireless96Nodes.visualizer.failureProtectionConfigurationVisualizer lineShiftMode "\"normal\""
par wireless96Nodes.visualizer.failureProtectionConfigurationVisualizer lineContactSpacing 3
par wireless96Nodes.visualizer.failureProtectionConfigurationVisualizer lineContactMode "\"rectangular\""
attr enum circular,rectangular
par wireless96Nodes.visualizer.failureProtectionConfigurationVisualizer failureProtectionConfiguratorModule "\"failureProtectionConfigurator\""
par wireless96Nodes.visualizer.failureProtectionConfigurationVisualizer streamFilter "\"*\""
par wireless96Nodes.visualizer.failureProtectionConfigurationVisualizer zIndex 3
par wireless96Nodes.visualizer.streamRedundancyConfigurationVisualizer typename "\"inet.visualizer.canvas.configurator.StreamRedundancyConfigurationCanvasVisualizer\""
par wireless96Nodes.visualizer.streamRedundancyConfigurationVisualizer visualizationTargetModule "\"^.^\""
par wireless96Nodes.visualizer.streamRedundancyConfigurationVisualizer visualizationSubjectModule "\"^.^\""
par wireless96Nodes.visualizer.streamRedundancyConfigurationVisualizer tags "\"\""
par wireless96Nodes.visualizer.streamRedundancyConfigurationVisualizer displayTrees false
par wireless96Nodes.visualizer.streamRedundancyConfigurationVisualizer lineColor "\"dark\""
attr enum light,dark
par wireless96Nodes.visualizer.streamRedundancyConfigurationVisualizer lineStyle "\"solid\""
par wireless96Nodes.visualizer.streamRedundancyConfigurationVisualizer lineWidth 3
par wireless96Nodes.visualizer.streamRedundancyConfigurationVisualizer lineSmooth false
par wireless96Nodes.visualizer.streamRedundancyConfigurationVisualizer lineShift 16
par wireless96Nodes.visualizer.streamRedundancyConfigurationVisualizer lineShiftMode "\"normal\""
par wireless96Nodes.visualizer.streamRedundancyConfigurationVisualizer lineContactSpacing 3
par wireless96Nodes.visualizer.streamRedundancyConfigurationVisualizer lineContactMode "\"rectangular\""
attr enum circular,rectangular
par wireless96Nodes.visualizer.streamRedundancyConfigurationVisualizer streamRedundancyConfiguratorModule "\"streamRedundancyConfigurator\""
par wireless96Nodes.visualizer.streamRedundancyConfigurationVisualizer streamFilter "\"*\""
par wireless96Nodes.visualizer.streamRedundancyConfigurationVisualizer zIndex 3
par wireless96Nodes.visualizer typename "\"inet.visualizer.canvas.integrated.IntegratedCanvasVisualizer\""
par wireless96Nodes.configurator typename "\"inet.networklayer.configurator.ipv4.Ipv4NetworkConfigurator\""
par wireless96Nodes.configurator minLinkWeight 0.001
par wireless96Nodes.configurator configureIsolatedNetworksSeparatly false
par wireless96Nodes.configurator config "<config>...</config> at content:1"
par wireless96Nodes.configurator assignAddresses true
par wireless96Nodes.configurator assignUniqueAddresses true
par wireless96Nodes.configurator assignDisjunctSubnetAddresses true
par wireless96Nodes.configurator addStaticRoutes true
par wireless96Nodes.configurator addDefaultRoutes true
par wireless96Nodes.configurator addSubnetRoutes true
par wireless96Nodes.configurator addDirectRoutes true
par wireless96Nodes.configurator optimizeRoutes true
par wireless96Nodes.configurator dumpTopology false
par wireless96Nodes.configurator dumpLinks false
par wireless96Nodes.configurator dumpAddresses false
par wireless96Nodes.configurator dumpRoutes false
par wireless96Nodes.configurator dumpConfig "\"\""
par wireless96Nodes.radioMedium.propagation typename "\"inet.physicallayer.wireless.common.propagation.ConstantSpeedPropagation\""
par wireless96Nodes.radioMedium.propagation propagationSpeed 2.99792e+08mps
attr unit mps
par wireless96Nodes.radioMedium.propagation ignoreMovementDuringTransmission true
par wireless96Nodes.radioMedium.propagation ignoreMovementDuringPropagation true
par wireless96Nodes.radioMedium.propagation ignoreMovementDuringReception true
scalar wireless96Nodes.radioMedium.propagation "Arrival computation count" 8222060
par wireless96Nodes.radioMedium.analogModel typename "\"inet.physicallayer.wireless.unitdisk.UnitDiskAnalogModel\""
par wireless96Nodes.radioMedium.pathLoss typename "\"inet.physicallayer.wireless.common.pathloss.FreeSpacePathLoss\""
par wireless96Nodes.radioMedium.pathLoss alpha 2
par wireless96Nodes.radioMedium.pathLoss systemLoss 0dB
attr unit dB
par wireless96Nodes.radioMedium.mediumLimitCache typename "\"inet.physicallayer.wireless.common.medium.MediumLimitCache\""
par wireless96Nodes.radioMedium.mediumLimitCache centerFrequency "nan Hz"
attr unit Hz
par wireless96Nodes.radioMedium.mediumLimitCache maxSpeed "nan mps"
attr unit mps
par wireless96Nodes.radioMedium.mediumLimitCache maxTransmissionPower "nan W"
attr unit W
par wireless96Nodes.radioMedium.mediumLimitCache minInterferencePower "nan dBm"
attr unit dBm
par wireless96Nodes.radioMedium.mediumLimitCache minReceptionPower "nan dBm"
attr unit dBm
par wireless96Nodes.radioMedium.mediumLimitCache maxAntennaGain 0dB
attr unit dB
par wireless96Nodes.radioMedium.mediumLimitCache minInterferenceTime 1e-12s
attr unit s
par wireless96Nodes.radioMedium.mediumLimitCache maxTransmissionDuration 0.01s
attr unit s
par wireless96Nodes.radioMedium.mediumLimitCache maxCommunicationRange "nan m"
attr unit m
par wireless96Nodes.radioMedium.mediumLimitCache maxInterferenceRange "nan m"
attr unit m
par wireless96Nodes.radioMedium.communicationCache typename "\"inet.physicallayer.wireless.common.communicationcache.VectorCommunicationCache\""
par wireless96Nodes.radioMedium typename "\"inet.physicallayer.wireless.unitdisk.UnitDiskRadioMedium\""
par wireless96Nodes.radioMedium physicalEnvironmentModule "\"physicalEnvironment\""
par wireless96Nodes.radioMedium signalAnalogRepresentation "\"unitDisk\""
attr enum unitDisk,scalar,dimensional
par wireless96Nodes.radioMedium rangeFilter "\"\""
par wireless96Nodes.radioMedium radioModeFilter false
par wireless96Nodes.radioMedium listeningFilter false
par wireless96Nodes.radioMedium macAddressFilter false
par wireless96Nodes.radioMedium recordTransmissionLog false
par wireless96Nodes.radioMedium recordReceptionLog false
scalar wireless96Nodes.radioMedium "transmission count" 86548
scalar wireless96Nodes.radioMedium "signal send count" 8222060
scalar wireless96Nodes.radioMedium "reception computation count" 8222060
scalar wireless96Nodes.radioMedium "interference computation count" 13367155
scalar wireless96Nodes.radioMedium "reception decision computation count" 555711
scalar wireless96Nodes.radioMedium "listening decision computation count" 4589384
scalar wireless96Nodes.radioMedium "reception cache hit" 95.33731495678
attr unit %
scalar wireless96Nodes.radioMedium "interference cache hit" 66.666666666667
attr unit %
scalar wireless96Nodes.radioMedium "noise cache hit" 0
attr unit %
scalar wireless96Nodes.radioMedium "snir cache hit" 50
attr unit %
scalar wireless96Nodes.radioMedium "reception decision cache hit" 50
attr unit %
scalar wireless96Nodes.radioMedium "reception result cache hit" 0
attr unit %
par wireless96Nodes.host1.radioIn[0].channel typename "\"ned.IdealChannel\""
par wireless96Nodes.host1.mobility typename "\"inet.mobility.static.StationaryMobility\""
par wireless96Nodes.host1.mobility subjectModule "\"^\""
par wireless96Nodes.host1.mobility coordinateSystemModule "\"\""
par wireless96Nodes.host1.mobility displayStringTextFormat "\"p: %p\\nv: %v\""
attr mutable ""
par wireless96Nodes.host1.mobility updateDisplayString true
par wireless96Nodes.host1.mobility constraintAreaMinX 0m
attr unit m
par wireless96Nodes.host1.mobility constraintAreaMinY 0m
attr unit m
par wireless96Nodes.host1.mobility constraintAreaMinZ 0m
attr unit m
par wireless96Nodes.host1.mobility constraintAreaMaxX 20000m
attr unit m
par wireless96Nodes.host1.mobility constraintAreaMaxY 20000m
attr unit m
par wireless96Nodes.host1.mobility constraintAreaMaxZ 0m
attr unit m
par wireless96Nodes.host1.mobility initialX 10976.3m
attr unit m
par wireless96Nodes.host1.mobility initialY 11856.9m
attr unit m
par wireless96Nodes.host1.mobility initialZ 0m
attr unit m
par wireless96Nodes.host1.mobility initialLatitude "nan deg"
attr unit deg
par wireless96Nodes.host1.mobility initialLongitude "nan deg"
attr unit deg
par wireless96Nodes.host1.mobility initialAltitude 0m
attr unit m
par wireless96Nodes.host1.mobility initialHeading 0deg
attr unit deg
par wireless96Nodes.host1.mobility initialElevation 0deg
attr unit deg
par wireless96Nodes.host1.mobility initialBank 0deg
attr unit deg
par wireless96Nodes.host1.mobility initFromDisplayString true
par wireless96Nodes.host1.mobility updateFromDisplayString true
par wireless96Nodes.host1.interfaceTable typename "\"inet.networklayer.common.InterfaceTable\""
par wireless96Nodes.host1.interfaceTable displayAddresses false
par wireless96Nodes.host1.cb typename "\"inet.common.MessageDispatcher\""
par wireless96Nodes.host1.cb displayStringTextFormat "\"processed %p pk (%l)\""
par wireless96Nodes.host1.cb forwardServiceRegistration true
par wireless96Nodes.host1.cb forwardProtocolRegistration true
par wireless96Nodes.host1.bl typename "\"inet.common.MessageDispatcher\""
par wireless96Nodes.host1.bl displayStringTextFormat "\"processed %p pk (%l)\""
par wireless96Nodes.host1.bl forwardServiceRegistration true
par wireless96Nodes.host1.bl forwardProtocolRegistration true
par wireless96Nodes.host1.li typename "\"inet.common.MessageDispatcher\""
par wireless96Nodes.host1.li displayStringTextFormat "\"processed %p pk (%l)\""
par wireless96Nodes.host1.li forwardServiceRegistration true
par wireless96Nodes.host1.li forwardProtocolRegistration true
par wireless96Nodes.host1.lo[0].upperLayerIn.channel typename "\"ned.IdealChannel\""
par wireless96Nodes.host1.lo[0].lo.upperLayerOut.channel typename "\"ned.IdealChannel\""
par wireless96Nodes.host1.lo[0].lo typename "\"inet.linklayer.loopback.Loopback\""
par wireless96Nodes.host1.lo[0].lo interfaceTableModule "\"wireless96Nodes.host1.interfaceTable\""
par wireless96Nodes.host1.lo[0].lo mtu 4470B
attr unit B
scalar wireless96Nodes.host1.lo[0].lo rcvdPkFromHl:count 10
attr interpolationmode none
attr recordingmode count
attr source packetReceivedFromUpper
attr title "packets received from higher layer, count"
scalar wireless96Nodes.host1.lo[0].lo rcvdPkFromHl:sum(packetBytes) 470
attr interpolationmode none
attr recordingmode sum(packetBytes)
attr source packetReceivedFromUpper
attr title "packets received from higher layer, sum(packetBytes)"
scalar wireless96Nodes.host1.lo[0].lo passedUpPk:count 10
attr interpolationmode none
attr recordingmode count
attr source packetSentToUpper
attr title "packets passed to higher layer, count"
scalar wireless96Nodes.host1.lo[0].lo passedUpPk:sum(packetBytes) 470
attr interpolationmode none
attr recordingmode sum(packetBytes)
attr source packetSentToUpper
attr title "packets passed to higher layer, sum(packetBytes)"
par wireless96Nodes.host1.lo[0] typename "\"inet.linklayer.loopback.LoopbackInterface\""
par wireless96Nodes.host1.lo[0] displayStringTextFormat "\"%a (%i)\\n%m\""
par wireless96Nodes.host1.lo[0] recordPcap false
par wireless96Nodes.host1.lo[0] numPcapRecorders 0
par wireless96Nodes.host1.lo[0] interfaceTableModule "\"wireless96Nodes.host1.interfaceTable\""
scalar wireless96Nodes.host1.lo[0] packetDropInterfaceDown:count 0
attr interpolationmode none
attr recordingmode count
attr source packetDropReasonIsInterfaceDown(packetDropped)
attr title "packet drops: interface down, count"
scalar wireless96Nodes.host1.lo[0] packetDropInterfaceDown:sum(packetBytes) 0
attr interpolationmode none
attr recordingmode sum(packetBytes)
attr source packetDropReasonIsInterfaceDown(packetDropped)
attr title "packet drops: interface down, sum(packetBytes)"
scalar wireless96Nodes.host1.lo[0] packetDropNoCarrier:count 0
attr interpolationmode none
attr recordingmode count
attr source packetDropReasonIsNoCarrier(packetDropped)
attr title "packet drops: no carrier, count"
scalar wireless96Nodes.host1.lo[0] packetDropNoCarrier:sum(packetBytes) 0
attr interpolationmode none
attr recordingmode sum(packetBytes)
attr source packetDropReasonIsNoCarrier(packetDropped)
attr title "packet drops: no carrier, sum(packetBytes)"
par wireless96Nodes.host1.wlan[0].upperLayerIn.channel typename "\"ned.IdealChannel\""
par wireless96Nodes.host1.wlan[0].radioIn.channel typename "\"ned.IdealChannel\""
par wireless96Nodes.host1.wlan[0].mac.upperLayerOut.channel typename "\"ned.IdealChannel\""
par wireless96Nodes.host1.wlan[0].queue typename "\"inet.queueing.queue.DropTailQueue\""
par wireless96Nodes.host1.wlan[0].queue displayStringTextFormat "\"contains %p pk (%l) pushed %u\\npulled %o removed %r dropped %d\""
par wireless96Nodes.host1.wlan[0].queue packetCapacity 100
par wireless96Nodes.host1.wlan[0].queue dataCapacity -1b
attr unit b
par wireless96Nodes.host1.wlan[0].queue dropperClass "\"inet::queueing::PacketAtCollectionEndDropper\""
par wireless96Nodes.host1.wlan[0].queue comparatorClass "\"\""
par wireless96Nodes.host1.wlan[0].queue bufferModule "\"\""
scalar wireless96Nodes.host1.wlan[0].queue queueLength:last 1
attr autoWarmupFilter false
attr interpolationmode sample-hold
attr recordingmode last
attr source "warmup(atomic(constant0(packetPushEnded) + count(packetPushStarted) - count(packetPulled) - count(packetRemoved) - count(packetDropped)))"
attr title "queue length, last"
attr unit pk
scalar wireless96Nodes.host1.wlan[0].queue queueLength:max 17
attr autoWarmupFilter false
attr interpolationmode sample-hold
attr recordingmode max
attr source "warmup(atomic(constant0(packetPushEnded) + count(packetPushStarted) - count(packetPulled) - count(packetRemoved) - count(packetDropped)))"
attr title "queue length, max"
attr unit pk
scalar wireless96Nodes.host1.wlan[0].queue queueLength:timeavg 1.6761004355017
attr autoWarmupFilter false
attr interpolationmode sample-hold
attr recordingmode timeavg
attr source "warmup(atomic(constant0(packetPushEnded) + count(packetPushStarted) - count(packetPulled) - count(packetRemoved) - count(packetDropped)))"
attr title "queue length, timeavg"
attr unit pk
scalar wireless96Nodes.host1.wlan[0].queue queueBitLength:last 416
attr autoWarmupFilter false
attr interpolationmode sample-hold
attr recordingmode last
attr source "warmup(atomic(constant0(packetPushEnded) + sum(packetLength(packetPushStarted)) - sum(packetLength(packetPulled)) - sum(packetLength(packetRemoved)) - sum(packetLength(packetDropped))))"
attr title "queue bit length, last"
attr unit b
scalar wireless96Nodes.host1.wlan[0].queue queueBitLength:max 7024
attr autoWarmupFilter false
attr interpolationmode sample-hold
attr recordingmode max
attr source "warmup(atomic(constant0(packetPushEnded) + sum(packetLength(packetPushStarted)) - sum(packetLength(packetPulled)) - sum(packetLength(packetRemoved)) - sum(packetLength(packetDropped))))"
attr title "queue bit length, max"
attr unit b
scalar wireless96Nodes.host1.wlan[0].queue queueBitLength:timeavg 692.56651068173
attr autoWarmupFilter false
attr interpolationmode sample-hold
attr recordingmode timeavg
attr source "warmup(atomic(constant0(packetPushEnded) + sum(packetLength(packetPushStarted)) - sum(packetLength(packetPulled)) - sum(packetLength(packetRemoved)) - sum(packetLength(packetDropped))))"
attr title "queue bit length, timeavg"
attr unit b
statistic wireless96Nodes.host1.wlan[0].queue queueingTime:histogram
field count 763
field mean 0.13174289559884
field stddev 0.16869499926665
field min 0
field max 0.796191038765
field sum 100.51982934192
field sqrsum 34.927771499118
attr interpolationmode none
attr recordingmode histogram
attr source queueingTime(packetPulled)
attr title "queueing times"
attr unit s
bin	-inf	0
bin	0	245
bin	0.01	27
bin	0.02	22
bin	0.03	18
bin	0.04	23
bin	0.05	27
bin	0.06	28
bin	0.07	23
bin	0.08	20
bin	0.09	28
bin	0.1	18
bin	0.11	9
bin	0.12	12
bin	0.13	20
bin	0.14	13
bin	0.15	7
bin	0.16	11
bin	0.17	12
bin	0.18	4
bin	0.19	8
bin	0.2	7
bin	0.21	8
bin	0.22	9
bin	0.23	7
bin	0.24	3
bin	0.25	7
bin	0.26	14
bin	0.27	5
bin	0.28	5
bin	0.29	10
bin	0.3	5
bin	0.31	6
bin	0.32	5
bin	0.33	8
bin	0.34	4
bin	0.35	2
bin	0.36	2
bin	0.37	2
bin	0.38	4
bin	0.39	6
bin	0.4	3
bin	0.41	3
bin	0.42	1
bin	0.43	3
bin	0.44	3
bin	0.45	3
bin	0.46	2
bin	0.47	3
bin	0.48	6
bin	0.49	0
bin	0.5	1
bin	0.51	2
bin	0.52	2
bin	0.53	5
bin	0.54	3
bin	0.55	1
bin	0.56	1
bin	0.57	2
bin	0.58	3
bin	0.59	3
bin	0.6	1
bin	0.61	1
bin	0.62	2
bin	0.63	2
bin	0.64	0
bin	0.65	0
bin	0.66	0
bin	0.67	4
bin	0.68	0
bin	0.69	1
bin	0.7	3
bin	0.71	1
bin	0.72	1
bin	0.73	0
bin	0.74	0
bin	0.75	0
bin	0.76	0
bin	0.77	0
bin	0.78	1
bin	0.79	2
bin	0.8	0
bin	0.81	0
bin	0.82	0
bin	0.83	0
bin	0.84	0
bin	0.85	0
scalar wireless96Nodes.host1.wlan[0].queue outgoingPackets:count 763
attr recordingmode count
attr source packetPulled
attr title "outgoing packets, count"
attr unit pk
scalar wireless96Nodes.host1.wlan[0].queue outgoingPacketLengths:sum 315104
attr interpolationmode none
attr recordingmode sum
attr source packetLength(packetPulled)
attr title "outgoing packet lengths, sum"
attr unit b
statistic wireless96Nodes.host1.wlan[0].queue outgoingPacketLengths:histogram
field count 763
field mean 412.98034076016
field stddev 61.725523857006
field min 288
field max 640
field sum 315104
field sqrsum 133035008
attr interpolationmode none
attr recordingmode histogram
attr source packetLength(packetPulled)
attr title "outgoing packet lengths"
attr unit b
bin	-inf	0
bin	200	0
bin	210	0
bin	220	0
bin	230	0
bin	240	0
bin	250	0
bin	260	0
bin	270	0
bin	280	17
bin	290	0
bin	300	21
bin	310	0
bin	320	0
bin	330	0
bin	340	0
bin	350	0
bin	360	0
bin	370	0
bin	380	24
bin	390	0
bin	400	495
bin	410	141
bin	420	0
bin	430	0
bin	440	13
bin	450	0
bin	460	0
bin	470	0
bin	480	0
bin	490	0
bin	500	0
bin	510	0
bin	520	0
bin	530	0
bin	540	12
bin	550	0
bin	560	0
bin	570	0
bin	580	0
bin	590	0
bin	600	0
bin	610	0
bin	620	0
bin	630	0
bin	640	40
bin	650	0
bin	660	0
bin	670	0
bin	680	0
bin	690	0
bin	700	0
bin	710	0
bin	720	0
bin	730	0
statistic wireless96Nodes.host1.wlan[0].queue flowQueueingTime:histogram
field count 0
field mean nan
field stddev nan
field min nan
field max nan
field sum 0
field sqrsum 0
attr interpolationmode none
attr recordingmode histogram
attr source queueingTime(demuxFlow(packetPulled))
attr title "flow queueing times"
attr unit s
bin	-inf	0
bin	0	0
bin	1	0
scalar wireless96Nodes.host1.wlan[0].queue incomingPackets:count 764
attr recordingmode count
attr source packetPushStarted
attr title "incoming packets, count"
attr unit pk
scalar wireless96Nodes.host1.wlan[0].queue incomingPacketLengths:sum 315520
attr interpolationmode none
attr recordingmode sum
attr source packetLength(packetPushStarted)
attr title "incoming packet lengths, sum"
attr unit b
statistic wireless96Nodes.host1.wlan[0].queue incomingPacketLengths:histogram
field count 764
field mean 412.98429319372
field stddev 61.685158107055
field min 288
field max 640
field sum 315520
field sqrsum 133208064
attr interpolationmode none
attr recordingmode histogram
attr source packetLength(packetPushStarted)
attr title "incoming packet lengths"
attr unit b
bin	-inf	0
bin	200	0
bin	210	0
bin	220	0
bin	230	0
bin	240	0
bin	250	0
bin	260	0
bin	270	0
bin	280	17
bin	290	0
bin	300	21
bin	310	0
bin	320	0
bin	330	0
bin	340	0
bin	350	0
bin	360	0
bin	370	0
bin	380	24
bin	390	0
bin	400	495
bin	410	142
bin	420	0
bin	430	0
bin	440	13
bin	450	0
bin	460	0
bin	470	0
bin	480	0
bin	490	0
bin	500	0
bin	510	0
bin	520	0
bin	530	0
bin	540	12
bin	550	0
bin	560	0
bin	570	0
bin	580	0
bin	590	0
bin	600	0
bin	610	0
bin	620	0
bin	630	0
bin	640	40
bin	650	0
bin	660	0
bin	670	0
bin	680	0
bin	690	0
bin	700	0
bin	710	0
bin	720	0
bin	730	0
scalar wireless96Nodes.host1.wlan[0].queue droppedPacketsQueueOverflow:count 0
attr interpolationmode none
attr recordingmode count
attr source packetDropReasonIsQueueOverflow(packetDropped)
attr title "dropped packets: queue overflow, count"
attr unit pk
scalar wireless96Nodes.host1.wlan[0].queue droppedPacketLengthsQueueOverflow:sum 0
attr interpolationmode none
attr recordingmode sum
attr source packetLength(packetDropReasonIsQueueOverflow(packetDropped))
attr title "dropped packet lengths: queue overflow, sum"
attr unit b
par wireless96Nodes.host1.wlan[0].mac typename "\"inet.linklayer.acking.AckingMac\""
par wireless96Nodes.host1.wlan[0].mac interfaceTableModule "\"wireless96Nodes.host1.interfaceTable\""
par wireless96Nodes.host1.wlan[0].mac address "\"auto\""
attr mutable ""
par wireless96Nodes.host1.wlan[0].mac bitrate 100000bps
attr unit bps
par wireless96Nodes.host1.wlan[0].mac mtu 4470B
attr unit B
par wireless96Nodes.host1.wlan[0].mac headerLength 23B
attr unit B
par wireless96Nodes.host1.wlan[0].mac promiscuous false
par wireless96Nodes.host1.wlan[0].mac fullDuplex true
par wireless96Nodes.host1.wlan[0].mac useAck true
par wireless96Nodes.host1.wlan[0].mac ackTimeout 0.1s
attr unit s
scalar wireless96Nodes.host1.wlan[0].mac rcvdPkFromLl:count 4753
attr interpolationmode none
attr recordingmode count
attr source packetReceivedFromLower
attr title "packets received from lower layer, count"
scalar wireless96Nodes.host1.wlan[0].mac rcvdPkFromLl:sum(packetBytes) 353249
attr interpolationmode none
attr recordingmode sum(packetBytes)
attr source packetReceivedFromLower
attr title "packets received from lower layer, sum(packetBytes)"
scalar wireless96Nodes.host1.wlan[0].mac sentDownPk:count 763
attr interpolationmode none
attr recordingmode count
attr source packetSentToLower
attr title "packets sent to lower layer, count"
scalar wireless96Nodes.host1.wlan[0].mac sentDownPk:sum(packetBytes) 56937
attr interpolationmode none
attr recordingmode sum(packetBytes)
attr source packetSentToLower
attr title "packets sent to lower layer, sum(packetBytes)"
scalar wireless96Nodes.host1.wlan[0].mac rcvdPkFromHl:count 763
attr interpolationmode none
attr recordingmode count
attr source packetReceivedFromUpper
attr title "packets received from higher layer, count"
scalar wireless96Nodes.host1.wlan[0].mac rcvdPkFromHl:sum(packetBytes) 39388
attr interpolationmode none
attr recordingmode sum(packetBytes)
attr source packetReceivedFromUpper
attr title "packets received from higher layer, sum(packetBytes)"
scalar wireless96Nodes.host1.wlan[0].mac passedUpPk:count 1358
attr interpolationmode none
attr recordingmode count
attr source packetSentToUpper
attr title "packets passed to higher layer, count"
scalar wireless96Nodes.host1.wlan[0].mac passedUpPk:sum(packetBytes) 66644
attr interpolationmode none
attr recordingmode sum(packetBytes)
attr source packetSentToUpper
attr title "packets passed to higher layer, sum(packetBytes)"
scalar wireless96Nodes.host1.wlan[0].mac packetDropIncorrectlyReceived:count 0
attr interpolationmode none
attr recordingmode count
attr source packetDropReasonIsIncorrectlyReceived(packetDropped)
attr title "packet drop: incorrectly received, count"
scalar wireless96Nodes.host1.wlan[0].mac packetDropIncorrectlyReceived:sum(packetBytes) 0
attr interpolationmode none
attr recordingmode sum(packetBytes)
attr source packetDropReasonIsIncorrectlyReceived(packetDropped)
attr title "packet drop: incorrectly received, sum(packetBytes)"
scalar wireless96Nodes.host1.wlan[0].mac packetDropInterfaceDown:count 0
attr interpolationmode none
attr recordingmode count
attr source packetDropReasonIsInterfaceDown(packetDropped)
attr title "packet drop: interface down, count"
scalar wireless96Nodes.host1.wlan[0].mac packetDropInterfaceDown:sum(packetBytes) 0
attr interpolationmode none
attr recordingmode sum(packetBytes)
attr source packetDropReasonIsInterfaceDown(packetDropped)
attr title "packet drop: interface down, sum(packetBytes)"
scalar wireless96Nodes.host1.wlan[0].mac packetDropNotAddressedToUs:count 3395
attr interpolationmode none
attr recordingmode count
attr source packetDropReasonIsNotAddressedToUs(packetDropped)
attr title "packet drop: not addressed to us, count"
scalar wireless96Nodes.host1.wlan[0].mac packetDropNotAddressedToUs:sum(packetBytes) 255371
attr interpolationmode none
attr recordingmode sum(packetBytes)
attr source packetDropReasonIsNotAddressedToUs(packetDropped)
attr title "packet drop: not addressed to us, sum(packetBytes)"
scalar wireless96Nodes.host1.wlan[0].mac linkBroken:count 362
attr interpolationmode none
attr recordingmode count
attr source linkBroken
attr title "link break, count"
par wireless96Nodes.host1.wlan[0].radio.antenna typename "\"inet.physicallayer.wireless.common.antenna.IsotropicAntenna\""
par wireless96Nodes.host1.wlan[0].radio.antenna mobilityModule "\"^.^.^.mobility\""
par wireless96Nodes.host1.wlan[0].radio.antenna numAntennas 1
par wireless96Nodes.host1.wlan[0].radio.transmitter typename "\"inet.physicallayer.wireless.unitdisk.UnitDiskTransmitter\""
par wireless96Nodes.host1.wlan[0].radio.transmitter preambleDuration 0s
attr unit s
par wireless96Nodes.host1.wlan[0].radio.transmitter headerLength 96b
attr unit b
par wireless96Nodes.host1.wlan[0].radio.transmitter bitrate 100000bps
attr unit bps
par wireless96Nodes.host1.wlan[0].radio.transmitter communicationRange 4000m
attr unit m
par wireless96Nodes.host1.wlan[0].radio.transmitter interferenceRange 0m
attr unit m
par wireless96Nodes.host1.wlan[0].radio.transmitter detectionRange 0m
attr unit m
par wireless96Nodes.host1.wlan[0].radio.receiver typename "\"inet.physicallayer.wireless.unitdisk.UnitDiskReceiver\""
par wireless96Nodes.host1.wlan[0].radio.receiver ignoreInterference true
par wireless96Nodes.host1.wlan[0].radio typename "\"inet.physicallayer.wireless.unitdisk.UnitDiskRadio\""
par wireless96Nodes.host1.wlan[0].radio radioMediumModule "\"radioMedium\""
par wireless96Nodes.host1.wlan[0].radio energySourceModule "\"\""
par wireless96Nodes.host1.wlan[0].radio initialRadioMode "\"off\""
attr enum off,sleep,receiver,transmitter,transceiver
par wireless96Nodes.host1.wlan[0].radio switchingTimes "\"ms 0 0 0 0 0 0 0 0 0 0 0 0 0 0 0 0 0 0 0 0 0 0 0 0 0\""
par wireless96Nodes.host1.wlan[0].radio sendRawBytes false
par wireless96Nodes.host1.wlan[0].radio separateTransmissionParts false
par wireless96Nodes.host1.wlan[0].radio separateReceptionParts false
par wireless96Nodes.host1.wlan[0].radio displayCommunicationRange true
par wireless96Nodes.host1.wlan[0].radio displayInterferenceRange false
statistic wireless96Nodes.host1.wlan[0].radio minSnir:histogram
field count 0
field mean nan
field stddev nan
field min nan
field max nan
field sum 0
field sqrsum 0
attr recordingmode histogram
attr source minimumSnir(packetSentToUpper)
attr title "Min SNIR"
bin	-inf	0
bin	0	0
bin	1	0
statistic wireless96Nodes.host1.wlan[0].radio packetErrorRate:histogram
field count 4753
field mean 0.64927414264675
field stddev 0.47724747315167
field min 0
field max 1
field sum 3086
field sqrsum 3086
attr recordingmode histogram
attr source packetErrorRate(packetSentToUpper)
attr title "Packet error rate"
bin	-inf	0
bin	0	1667
bin	1	3086
bin	2	0
statistic wireless96Nodes.host1.wlan[0].radio bitErrorRate:histogram
field count 4753
field mean 0.64927414264675
field stddev 0.47724747315167
field min 0
field max 1
field sum 3086
field sqrsum 3086
attr recordingmode histogram
attr source bitErrorRate(packetSentToUpper)
attr title "Bit error rate"
bin	-inf	0
bin	0	1667
bin	1	3086
bin	2	0
statistic wireless96Nodes.host1.wlan[0].radio symbolErrorRate:histogram
field count 4753
field mean 0.64927414264675
field stddev 0.47724747315167
field min 0
field max 1
field sum 3086
field sqrsum 3086
attr recordingmode histogram
attr source symbolErrorRate(packetSentToUpper)
attr title "Symbol error rate"
bin	-inf	0
bin	0	1667
bin	1	3086
bin	2	0
scalar wireless96Nodes.host1.wlan[0].radio transmissionState:count 1527
attr interpolationmode sample-hold
attr recordingmode count
attr source transmissionStateChanged
attr title "Radio transmission state, count"
scalar wireless96Nodes.host1.wlan[0].radio receptionState:count 10192
attr interpolationmode sample-hold
attr recordingmode count
attr source receptionStateChanged
attr title "Radio reception state, count"
scalar wireless96Nodes.host1.wlan[0].radio radioMode:count 3
attr interpolationmode sample-hold
attr recordingmode count
attr source radioModeChanged
attr title "Radio mode, count"
par wireless96Nodes.host1.wlan[0] typename "\"inet.linklayer.acking.AckingWirelessInterface\""
par wireless96Nodes.host1.wlan[0] displayStringTextFormat "\"%a (%i)\\n%m\""
par wireless96Nodes.host1.wlan[0] recordPcap false
par wireless96Nodes.host1.wlan[0] numPcapRecorders 0
par wireless96Nodes.host1.wlan[0] interfaceTableModule "\"wireless96Nodes.host1.interfaceTable\""
par wireless96Nodes.host1.wlan[0] energySourceModule "\"\""
par wireless96Nodes.host1.wlan[0] bitrate 100000bps
attr unit bps
scalar wireless96Nodes.host1.wlan[0] packetDropInterfaceDown:count 0
attr interpolationmode none
attr recordingmode count
attr source packetDropReasonIsInterfaceDown(packetDropped)
attr title "packet drops: interface down, count"
scalar wireless96Nodes.host1.wlan[0] packetDropInterfaceDown:sum(packetBytes) 0
attr interpolationmode none
attr recordingmode sum(packetBytes)
attr source packetDropReasonIsInterfaceDown(packetDropped)
attr title "packet drops: interface down, sum(packetBytes)"
scalar wireless96Nodes.host1.wlan[0] packetDropNoCarrier:count 0
attr interpolationmode none
attr recordingmode count
attr source packetDropReasonIsNoCarrier(packetDropped)
attr title "packet drops: no carrier, count"
scalar wireless96Nodes.host1.wlan[0] packetDropNoCarrier:sum(packetBytes) 0
attr interpolationmode none
attr recordingmode sum(packetBytes)
attr source packetDropReasonIsNoCarrier(packetDropped)
attr title "packet drops: no carrier, sum(packetBytes)"
par wireless96Nodes.host1.ipv4.transportIn.channel typename "\"ned.IdealChannel\""
par wireless96Nodes.host1.ipv4.up.out[0].channel typename "\"ned.IdealChannel\""
par wireless96Nodes.host1.ipv4.lp.out[2].channel typename "\"ned.IdealChannel\""
par wireless96Nodes.host1.ipv4.ifIn.channel typename "\"ned.IdealChannel\""
par wireless96Nodes.host1.ipv4.configurator typename "\"inet.networklayer.configurator.ipv4.Ipv4NodeConfigurator\""
par wireless96Nodes.host1.ipv4.configurator interfaceTableModule "\"wireless96Nodes.host1.interfaceTable\""
par wireless96Nodes.host1.ipv4.configurator routingTableModule "\"wireless96Nodes.host1.ipv4.routingTable\""
par wireless96Nodes.host1.ipv4.configurator networkConfiguratorModule "\"configurator\""
par wireless96Nodes.host1.ipv4.configurator configureRoutingTable true
par wireless96Nodes.host1.ipv4.routingTable typename "\"inet.networklayer.ipv4.Ipv4RoutingTable\""
par wireless96Nodes.host1.ipv4.routingTable interfaceTableModule "\"wireless96Nodes.host1.interfaceTable\""
par wireless96Nodes.host1.ipv4.routingTable routerId "\"auto\""
par wireless96Nodes.host1.ipv4.routingTable netmaskRoutes "\"*\""
par wireless96Nodes.host1.ipv4.routingTable forwarding true
par wireless96Nodes.host1.ipv4.routingTable multicastForwarding false
[...]
attr source packetDropReasonIsNoCarrier(packetDropped)
attr title "packet drops: no carrier, sum(packetBytes)"
par wireless96Nodes.host96.ipv4.transportIn.channel typename "\"ned.IdealChannel\""
par wireless96Nodes.host96.ipv4.up.out[0].channel typename "\"ned.IdealChannel\""
par wireless96Nodes.host96.ipv4.lp.out[2].channel typename "\"ned.IdealChannel\""
par wireless96Nodes.host96.ipv4.ifIn.channel typename "\"ned.IdealChannel\""
par wireless96Nodes.host96.ipv4.configurator typename "\"inet.networklayer.configurator.ipv4.Ipv4NodeConfigurator\""
par wireless96Nodes.host96.ipv4.configurator interfaceTableModule "\"wireless96Nodes.host96.interfaceTable\""
par wireless96Nodes.host96.ipv4.configurator routingTableModule "\"wireless96Nodes.host96.ipv4.routingTable\""
par wireless96Nodes.host96.ipv4.configurator networkConfiguratorModule "\"configurator\""
par wireless96Nodes.host96.ipv4.configurator configureRoutingTable true
par wireless96Nodes.host96.ipv4.routingTable typename "\"inet.networklayer.ipv4.Ipv4RoutingTable\""
par wireless96Nodes.host96.ipv4.routingTable interfaceTableModule "\"wireless96Nodes.host96.interfaceTable\""
par wireless96Nodes.host96.ipv4.routingTable routerId "\"auto\""
par wireless96Nodes.host96.ipv4.routingTable netmaskRoutes "\"*\""
par wireless96Nodes.host96.ipv4.routingTable forwarding true
par wireless96Nodes.host96.ipv4.routingTable multicastForwarding false
par wireless96Nodes.host96.ipv4.routingTable useAdminDist false
par wireless96Nodes.host96.ipv4.routingTable routingFile "\"\""
par wireless96Nodes.host96.ipv4.natTable typename "\"inet.networklayer.ipv4.Ipv4NatTable\""
par wireless96Nodes.host96.ipv4.natTable networkProtocolModule "\"^.ip\""
par wireless96Nodes.host96.ipv4.natTable config "<config/> at content:1"
par wireless96Nodes.host96.ipv4.up typename "\"inet.common.MessageDispatcher\""
par wireless96Nodes.host96.ipv4.up displayStringTextFormat "\"processed %p pk (%l)\""
par wireless96Nodes.host96.ipv4.up forwardServiceRegistration true
par wireless96Nodes.host96.ipv4.up forwardProtocolRegistration true
par wireless96Nodes.host96.ipv4.igmp typename "\"inet.networklayer.ipv4.Igmpv2\""
par wireless96Nodes.host96.ipv4.igmp interfaceTableModule "\"wireless96Nodes.host96.interfaceTable\""
par wireless96Nodes.host96.ipv4.igmp routingTableModule "\"wireless96Nodes.host96.ipv4.routingTable\""
par wireless96Nodes.host96.ipv4.igmp crcMode "\"declared\""
attr enum declared,computed
par wireless96Nodes.host96.ipv4.igmp enabled true
par wireless96Nodes.host96.ipv4.igmp robustnessVariable 2
par wireless96Nodes.host96.ipv4.igmp queryInterval 125s
attr unit s
par wireless96Nodes.host96.ipv4.igmp queryResponseInterval 10s
attr unit s
par wireless96Nodes.host96.ipv4.igmp groupMembershipInterval 260s
attr unit s
par wireless96Nodes.host96.ipv4.igmp otherQuerierPresentInterval 255s
attr unit s
par wireless96Nodes.host96.ipv4.igmp startupQueryInterval 31.25s
attr unit s
par wireless96Nodes.host96.ipv4.igmp startupQueryCount 2
par wireless96Nodes.host96.ipv4.igmp lastMemberQueryInterval 1s
attr unit s
par wireless96Nodes.host96.ipv4.igmp lastMemberQueryCount 2
par wireless96Nodes.host96.ipv4.igmp unsolicitedReportInterval 10s
attr unit s
par wireless96Nodes.host96.ipv4.icmp typename "\"inet.networklayer.ipv4.Icmp\""
par wireless96Nodes.host96.ipv4.icmp interfaceTableModule "\"wireless96Nodes.host96.interfaceTable\""
par wireless96Nodes.host96.ipv4.icmp routingTableModule "\"wireless96Nodes.host96.ipv4.routingTable\""
par wireless96Nodes.host96.ipv4.icmp crcMode "\"declared\""
attr enum declared,computed
attr mutable ""
par wireless96Nodes.host96.ipv4.icmp quoteLength 8B
attr mutable ""
attr unit B
par wireless96Nodes.host96.ipv4.mp typename "\"inet.common.MessageDispatcher\""
par wireless96Nodes.host96.ipv4.mp displayStringTextFormat "\"processed %p pk (%l)\""
par wireless96Nodes.host96.ipv4.mp forwardServiceRegistration true
par wireless96Nodes.host96.ipv4.mp forwardProtocolRegistration true
par wireless96Nodes.host96.ipv4.ip typename "\"inet.networklayer.ipv4.Ipv4\""
par wireless96Nodes.host96.ipv4.ip interfaceTableModule "\"wireless96Nodes.host96.interfaceTable\""
par wireless96Nodes.host96.ipv4.ip routingTableModule "\"wireless96Nodes.host96.ipv4.routingTable\""
par wireless96Nodes.host96.ipv4.ip arpModule "\"wireless96Nodes.host96.ipv4.arp\""
par wireless96Nodes.host96.ipv4.ip icmpModule "\"wireless96Nodes.host96.ipv4.icmp\""
par wireless96Nodes.host96.ipv4.ip crcMode "\"declared\""
attr enum declared,computed
par wireless96Nodes.host96.ipv4.ip timeToLive 32
par wireless96Nodes.host96.ipv4.ip multicastTimeToLive 32
par wireless96Nodes.host96.ipv4.ip fragmentTimeout 60s
attr unit s
par wireless96Nodes.host96.ipv4.ip limitedBroadcast false
par wireless96Nodes.host96.ipv4.ip directBroadcastInterfaces "\"\""
scalar wireless96Nodes.host96.ipv4.ip packetDropAddressResolutionFailed:count 0
attr interpolationmode none
attr recordingmode count
attr source packetDropReasonIsAddressResolutionFailed(packetDropped)
attr title "packet drop: address resolution failed, count"
scalar wireless96Nodes.host96.ipv4.ip packetDropAddressResolutionFailed:sum(packetBytes) 0
attr interpolationmode none
attr recordingmode sum(packetBytes)
attr source packetDropReasonIsAddressResolutionFailed(packetDropped)
attr title "packet drop: address resolution failed, sum(packetBytes)"
scalar wireless96Nodes.host96.ipv4.ip packetDropHopLimitReached:count 0
attr interpolationmode none
attr recordingmode count
attr source packetDropReasonIsHopLimitReached(packetDropped)
attr title "packet drop: hop limit reached, count"
scalar wireless96Nodes.host96.ipv4.ip packetDropHopLimitReached:sum(packetBytes) 0
attr interpolationmode none
attr recordingmode sum(packetBytes)
attr source packetDropReasonIsHopLimitReached(packetDropped)
attr title "packet drop: hop limit reached, sum(packetBytes)"
scalar wireless96Nodes.host96.ipv4.ip packetDropForwardingDisabled:count 0
attr interpolationmode none
attr recordingmode count
attr source packetDropReasonIsForwardingDisabled(packetDropped)
attr title "packet drop: forwarding disabled, count"
scalar wireless96Nodes.host96.ipv4.ip packetDropForwardingDisabled:sum(packetBytes) 0
attr interpolationmode none
attr recordingmode sum(packetBytes)
attr source packetDropReasonIsForwardingDisabled(packetDropped)
attr title "packet drop: forwarding disabled, sum(packetBytes)"
scalar wireless96Nodes.host96.ipv4.ip packetDropNoInterfaceFound:count 0
attr interpolationmode none
attr recordingmode count
attr source packetDropReasonIsNoInterfaceFound(packetDropped)
attr title "packet drop: no interface found, count"
scalar wireless96Nodes.host96.ipv4.ip packetDropNoInterfaceFound:sum(packetBytes) 0
attr interpolationmode none
attr recordingmode sum(packetBytes)
attr source packetDropReasonIsNoInterfaceFound(packetDropped)
attr title "packet drop: no interface found, sum(packetBytes)"
scalar wireless96Nodes.host96.ipv4.ip packetDropNoRouteFound:count 0
attr interpolationmode none
attr recordingmode count
attr source packetDropReasonIsNoRouteFound(packetDropped)
attr title "packet drop: no route found, count"
scalar wireless96Nodes.host96.ipv4.ip packetDropNoRouteFound:sum(packetBytes) 0
attr interpolationmode none
attr recordingmode sum(packetBytes)
attr source packetDropReasonIsNoRouteFound(packetDropped)
attr title "packet drop: no route found, sum(packetBytes)"
scalar wireless96Nodes.host96.ipv4.ip packetDropUndefined:count 0
attr interpolationmode none
attr recordingmode count
attr source packetDropReasonIsUndefined(packetDropped)
attr title "packet drop: undefined, count"
scalar wireless96Nodes.host96.ipv4.ip packetDropUndefined:sum(packetBytes) 0
attr interpolationmode none
attr recordingmode sum(packetBytes)
attr source packetDropReasonIsUndefined(packetDropped)
attr title "packet drop: undefined, sum(packetBytes)"
par wireless96Nodes.host96.ipv4.arp typename "\"inet.networklayer.arp.ipv4.GlobalArp\""
par wireless96Nodes.host96.ipv4.arp interfaceTableModule "\"wireless96Nodes.host96.interfaceTable\""
par wireless96Nodes.host96.ipv4.arp addressType "\"ipv4\""
attr enum ipv4,ipv6,mac,moduleid,modulepath
par wireless96Nodes.host96.ipv4.lp typename "\"inet.common.MessageDispatcher\""
par wireless96Nodes.host96.ipv4.lp displayStringTextFormat "\"processed %p pk (%l)\""
par wireless96Nodes.host96.ipv4.lp forwardServiceRegistration true
par wireless96Nodes.host96.ipv4.lp forwardProtocolRegistration true
par wireless96Nodes.host96.ipv4 typename "\"inet.networklayer.ipv4.Ipv4NetworkLayer\""
par wireless96Nodes.host96.ipv4 forwarding true
par wireless96Nodes.host96.ipv4 multicastForwarding false
par wireless96Nodes.host96.ipv4 interfaceTableModule "\"wireless96Nodes.host96.interfaceTable\""
par wireless96Nodes.host96.ipv4 displayStringTextFormat "\"%i\""
par wireless96Nodes.host96.nl typename "\"inet.common.MessageDispatcher\""
par wireless96Nodes.host96.nl displayStringTextFormat "\"processed %p pk (%l)\""
par wireless96Nodes.host96.nl forwardServiceRegistration true
par wireless96Nodes.host96.nl forwardProtocolRegistration true
par wireless96Nodes.host96.udp typename "\"inet.transportlayer.udp.Udp\""
par wireless96Nodes.host96.udp interfaceTableModule "\"wireless96Nodes.host96.interfaceTable\""
par wireless96Nodes.host96.udp icmpModule "\"^.ipv4.icmp\""
par wireless96Nodes.host96.udp icmpv6Module "\"^.ipv6.icmpv6\""
par wireless96Nodes.host96.udp crcMode "\"declared\""
attr enum disabled,declared,computed
par wireless96Nodes.host96.udp defaultMulticastLoop true
scalar wireless96Nodes.host96.udp packetReceived:count 516
attr interpolationmode none
attr recordingmode count
attr source packetReceived
attr title "packets received, count"
scalar wireless96Nodes.host96.udp packetReceived:sum(packetBytes) 15064
attr interpolationmode none
attr recordingmode sum(packetBytes)
attr source packetReceived
attr title "packets received, sum(packetBytes)"
scalar wireless96Nodes.host96.udp packetSent:count 532
attr interpolationmode none
attr recordingmode count
attr source packetSent
attr title "packets sent, count"
scalar wireless96Nodes.host96.udp packetSent:sum(packetBytes) 10096
attr interpolationmode none
attr recordingmode sum(packetBytes)
attr source packetSent
attr title "packets sent, sum(packetBytes)"
scalar wireless96Nodes.host96.udp passedUpPk:count 460
attr interpolationmode none
attr recordingmode count
attr source packetSentToUpper
attr title "packets passed up, count"
scalar wireless96Nodes.host96.udp droppedPkWrongPort:count 56
attr interpolationmode none
attr recordingmode count
attr source packetDropReasonIsNoPortFound(packetDropped)
attr title "packets dropped (wrong port), count"
scalar wireless96Nodes.host96.udp droppedPkBadChecksum:count 0
attr interpolationmode none
attr recordingmode count
attr source packetDropReasonIsIncorrectlyReceived(packetDropped)
attr title "packets dropped (checksum error), count"
par wireless96Nodes.host96.tcp typename "\"inet.transportlayer.tcp.Tcp\""
par wireless96Nodes.host96.tcp crcMode "\"declared\""
attr enum declared,computed
par wireless96Nodes.host96.tcp advertisedWindow 7504
par wireless96Nodes.host96.tcp delayedAcksEnabled false
par wireless96Nodes.host96.tcp nagleEnabled true
par wireless96Nodes.host96.tcp limitedTransmitEnabled false
par wireless96Nodes.host96.tcp increasedIWEnabled false
par wireless96Nodes.host96.tcp sackSupport false
par wireless96Nodes.host96.tcp windowScalingSupport false
par wireless96Nodes.host96.tcp windowScalingFactor -1
par wireless96Nodes.host96.tcp timestampSupport false
par wireless96Nodes.host96.tcp mss 536
par wireless96Nodes.host96.tcp msl 120s
attr unit s
par wireless96Nodes.host96.tcp tcpAlgorithmClass "\"TcpReno\""
attr enum TcpVegas,TcpWestwood,TcpNewReno,TcpReno,TcpTahoe,TcpNoCongestionControl
par wireless96Nodes.host96.tcp useDataNotification false
par wireless96Nodes.host96.tcp dupthresh 3
par wireless96Nodes.host96.tcp initialSsthresh 4294967295
par wireless96Nodes.host96.tcp stopOperationExtraTime 0s
attr unit s
par wireless96Nodes.host96.tcp stopOperationTimeout 2s
attr unit s
par wireless96Nodes.host96.tcp ecnWillingness false
par wireless96Nodes.host96.tcp dctcpGamma 0.0625
par wireless96Nodes.host96.tn typename "\"inet.common.MessageDispatcher\""
par wireless96Nodes.host96.tn displayStringTextFormat "\"processed %p pk (%l)\""
par wireless96Nodes.host96.tn forwardServiceRegistration true
par wireless96Nodes.host96.tn forwardProtocolRegistration true
par wireless96Nodes.host96.app[0] typename "\"inet.applications.udpapp.UdpBasicApp\""
par wireless96Nodes.host96.app[0] interfaceTableModule "\"wireless96Nodes.host96.interfaceTable\""
par wireless96Nodes.host96.app[0] clockModule "\"\""
par wireless96Nodes.host96.app[0] localPort -1
par wireless96Nodes.host96.app[0] destAddresses "\"host1 host2 host3 host4 host5 host6 host7 host8 host9 host10 host11 host12 host13 host14 host15 host16 host17 host18 host19 host20 host21 host22 host23 host24 host25 host26 host27 host28 host29 host30 host31 host32 host33 host34 host35 host36 host37 host38 host39 host40 host41 host42 host43 host44 host45 host46 host47 host48 host49 host50 host51 host52 host53 host54 host55 host56 host57 host58 host59 host60 host61 host62 host63 host64 host65 host66 host67 host68 host69 host70 host71 host72 host73 host74 host75 host76 host77 host78 host79 host80 host81 host82 host83 host84 host85 host86 host87 host88 host89 host90 host91 host92 host93 host94 host95 host96\""
par wireless96Nodes.host96.app[0] localAddress "\"\""
par wireless96Nodes.host96.app[0] packetName "\"UDPData\""
par wireless96Nodes.host96.app[0] destPort 5000
par wireless96Nodes.host96.app[0] messageLength 10B
attr unit B
par wireless96Nodes.host96.app[0] startTime 5s
attr unit s
par wireless96Nodes.host96.app[0] stopTime -1s
attr unit s
par wireless96Nodes.host96.app[0] sendInterval exponential(100ms)
attr unit s
par wireless96Nodes.host96.app[0] timeToLive -1
par wireless96Nodes.host96.app[0] dontFragment false
par wireless96Nodes.host96.app[0] dscp -1
par wireless96Nodes.host96.app[0] tos -1
par wireless96Nodes.host96.app[0] multicastInterface "\"\""
par wireless96Nodes.host96.app[0] receiveBroadcast false
par wireless96Nodes.host96.app[0] joinLocalMulticastGroups false
par wireless96Nodes.host96.app[0] stopOperationExtraTime -1s
attr unit s
par wireless96Nodes.host96.app[0] stopOperationTimeout 2s
attr unit s
scalar wireless96Nodes.host96.app[0] "packets sent" 486
scalar wireless96Nodes.host96.app[0] "packets received" 0
scalar wireless96Nodes.host96.app[0] packetReceived:count 0
attr interpolationmode none
attr recordingmode count
attr source packetReceived
attr title "packets received, count"
scalar wireless96Nodes.host96.app[0] packetReceived:sum(packetBytes) 0
attr interpolationmode none
attr recordingmode sum(packetBytes)
attr source packetReceived
attr title "packets received, sum(packetBytes)"
statistic wireless96Nodes.host96.app[0] rcvdPkLifetime:stats
field count 0
field mean nan
field stddev nan
field min nan
field max nan
field sum 0
field sqrsum 0
attr interpolationmode none
attr recordingmode stats
attr source dataAge(packetReceived)
attr title "received packet lifetime"
attr unit s
scalar wireless96Nodes.host96.app[0] packetSent:count 486
attr interpolationmode none
attr recordingmode count
attr source packetSent
attr title "packets sent, count"
scalar wireless96Nodes.host96.app[0] packetSent:sum(packetBytes) 4860
attr interpolationmode none
attr recordingmode sum(packetBytes)
attr source packetSent
attr title "packets sent, sum(packetBytes)"
par wireless96Nodes.host96.at typename "\"inet.common.MessageDispatcher\""
par wireless96Nodes.host96.at displayStringTextFormat "\"processed %p pk (%l)\""
par wireless96Nodes.host96.at forwardServiceRegistration true
par wireless96Nodes.host96.at forwardProtocolRegistration true
par wireless96Nodes.host96.aodv typename "\"inet.routing.aodv.Aodv\""
par wireless96Nodes.host96.aodv routingTableModule "\"^.ipv4.routingTable\""
par wireless96Nodes.host96.aodv interfaceTableModule "\"wireless96Nodes.host96.interfaceTable\""
par wireless96Nodes.host96.aodv networkProtocolModule "\"^.ipv4.ip\""
par wireless96Nodes.host96.aodv askGratuitousRREP false
par wireless96Nodes.host96.aodv useHelloMessages false
par wireless96Nodes.host96.aodv useLocalRepair false
par wireless96Nodes.host96.aodv destinationOnlyFlag false
par wireless96Nodes.host96.aodv udpPort 654
par wireless96Nodes.host96.aodv interface "\"wlan0\""
par wireless96Nodes.host96.aodv maxPeriodicJitter 0.25s
attr unit s
par wireless96Nodes.host96.aodv periodicJitter "uniform(0s, maxPeriodicJitter)"
attr unit s
par wireless96Nodes.host96.aodv jitter "uniform(0ms, maxJitter)"
attr unit s
par wireless96Nodes.host96.aodv helloInterval 1s
attr unit s
par wireless96Nodes.host96.aodv allowedHelloLoss 2
par wireless96Nodes.host96.aodv activeRouteTimeout 3s
attr unit s
par wireless96Nodes.host96.aodv netDiameter 35
par wireless96Nodes.host96.aodv nodeTraversalTime 0.04s
attr unit s
par wireless96Nodes.host96.aodv rerrRatelimit 10
par wireless96Nodes.host96.aodv rreqRetries 0
par wireless96Nodes.host96.aodv rreqRatelimit 10
par wireless96Nodes.host96.aodv timeoutBuffer 2
par wireless96Nodes.host96.aodv ttlStart 96
par wireless96Nodes.host96.aodv ttlIncrement 2
par wireless96Nodes.host96.aodv ttlThreshold 7
par wireless96Nodes.host96.aodv localAddTTL 2
par wireless96Nodes.host96.aodv myRouteTimeout 6s
attr unit s
par wireless96Nodes.host96.aodv deletePeriod 15s
attr unit s
par wireless96Nodes.host96.aodv blacklistTimeout 0s
attr unit s
par wireless96Nodes.host96.aodv netTraversalTime 2.8s
attr unit s
par wireless96Nodes.host96.aodv nextHopWait 0.05s
attr unit s
par wireless96Nodes.host96.aodv pathDiscoveryTime 5.6s
attr unit s
par wireless96Nodes.host96.aodv outputInterface "\"wlan0\""
par wireless96Nodes.host96.aodv interfaces "\"*\""
par wireless96Nodes.host96.aodv beaconInterval 3s
attr unit s
par wireless96Nodes.host96.aodv maxJitter 1.5s
attr unit s
par wireless96Nodes.host96.aodv neighborValidityInterval 13.5s
attr unit s
par wireless96Nodes.host96.aodv positionByteLength 8B
attr unit B
par wireless96Nodes.host96.aodv displayBubbles false
statistic wireless96Nodes.host96.aodv Data_packets_Sent:stats
field count 495
field mean 248
field stddev 143.03845636751
field min 1
field max 495
field sum 122760
field sqrsum 40551720
attr interpolationmode none
attr recordingmode stats
attr source DataPckSent
attr title "Data packets"
statistic wireless96Nodes.host96.aodv Control_packets:stats
field count 49
field mean 25
field stddev 14.288690166235
field min 1
field max 49
field sum 1225
field sqrsum 40425
attr interpolationmode none
attr recordingmode stats
attr source ctrlPckCount
attr title "Control packets"
par wireless96Nodes.host96 typename "\"inet.node.aodv.AodvRouter\""
par wireless96Nodes.host96 hasStatus false
par wireless96Nodes.host96 osgModel "\"\""
par wireless96Nodes.host96 osgModelColor "\"\""
par wireless96Nodes.host96 canvasImage "\"\""
par wireless96Nodes.host96 canvasImageColor "\"\""
par wireless96Nodes.host96 recordPcap false
par wireless96Nodes.host96 numPcapRecorders 0
par wireless96Nodes.host96 numLoInterfaces 1
par wireless96Nodes.host96 numWlanInterfaces 1
par wireless96Nodes.host96 numEthInterfaces 0
par wireless96Nodes.host96 numPppInterfaces 0
par wireless96Nodes.host96 numTunInterfaces 0
par wireless96Nodes.host96 numVirtInterfaces 0
par wireless96Nodes.host96 fcsMode "\"declared\""
attr enum declared,computed
par wireless96Nodes.host96 hasIpv4 true
par wireless96Nodes.host96 hasIpv6 false
par wireless96Nodes.host96 hasGn false
par wireless96Nodes.host96 forwarding true
par wireless96Nodes.host96 multicastForwarding false
par wireless96Nodes.host96 hasUdp true
par wireless96Nodes.host96 hasTcp true
par wireless96Nodes.host96 hasSctp false
par wireless96Nodes.host96 numApps 1
par wireless96Nodes typename "\"tacsim.simulations.Testing.wireless96Nodes\""

